
     RDKit          2D

  7  6  0  0  0  0  0  0  0  0999 V2000
    2.0625    0.7145    0.0000 C   0  0  0  0  0  0  0  0  0  0  0  0
    1.2375    0.7145    0.0000 C   0  0  0  0  0  0  0  0  0  0  0  0
    0.8250    1.4289    0.0000 N   0  0  0  0  0  0  0  0  0  0  0  0
    0.8250    0.0000    0.0000 C   0  0  0  0  0  0  0  0  0  0  0  0
    0.0000    0.0000    0.0000 O   0  0  0  0  0  0  0  0  0  0  0  0
    1.2375    2.1434    0.0000 R#  0  0  0  0  0  0  0  0  0  0  0  0
    1.2375   -0.7145    0.0000 R#  0  0  0  0  0  0  0  0  0  0  0  0
  2  1  1  1
  2  3  1  0
  3  6  1  0
  2  4  1  0
  4  7  1  0
  4  5  2  0
M  RGP  2   6   1   7   2
V    6 *
V    7 *
M  END
>  <m_name>  (1) 
Alanine

>  <symbol>  (1) 
A

>  <m_abbr>  (1) 
A

>  <m_type>  (1) 
aa

>  <m_subtype>  (1) 
natural

>  <m_Rgroups>  (1) 
H,OH,None,None

>  <m_RgroupIdx>  (1) 
5,6,None,None

>  <m_attachmentPointIdx>  (1) 
2,3,None,None

>  <natAnalog>  (1) 
A

>  <pdbName>  (1) 
ALA

$$$$

     RDKit          2D

  9  8  0  0  0  0  0  0  0  0999 V2000
    1.9520   -1.9520    0.0000 N   0  0  0  0  0  0  0  0  0  0  0  0
    1.9520   -1.1270    0.0000 C   0  0  0  0  0  0  0  0  0  0  0  0
    1.2375   -0.7145    0.0000 C   0  0  0  0  0  0  0  0  0  0  0  0
    1.2375    0.1105    0.0000 S   0  0  0  0  0  0  0  0  0  0  0  0
    2.6664   -0.7145    0.0000 C   0  0  0  0  0  0  0  0  0  0  0  0
    3.3809   -1.1270    0.0000 O   0  0  0  0  0  0  0  0  0  0  0  0
    2.6664   -2.3645    0.0000 R#  0  0  0  0  0  0  0  0  0  0  0  0
    0.5230    0.5230    0.0000 R#  0  0  0  0  0  0  0  0  0  0  0  0
    2.6664    0.1105    0.0000 R#  0  0  0  0  0  0  0  0  0  0  0  0
  7  1  1  0
  2  1  1  0
  2  3  1  1
  3  4  1  0
  4  8  1  0
  2  5  1  0
  5  9  1  0
  5  6  2  0
M  RGP  3   7   1   8   3   9   2
V    7 *
V    8 *
V    9 *
M  END
>  <m_name>  (2) 
Cysteine

>  <symbol>  (2) 
C

>  <m_abbr>  (2) 
C

>  <m_type>  (2) 
aa

>  <m_subtype>  (2) 
natural

>  <m_Rgroups>  (2) 
H,OH,H,None

>  <m_RgroupIdx>  (2) 
6,8,7,None

>  <m_attachmentPointIdx>  (2) 
0,4,3,None

>  <natAnalog>  (2) 
C

>  <pdbName>  (2) 
CYS

$$$$

     RDKit          2D

 10  9  0  0  0  0  0  0  0  0999 V2000
    1.9520   -1.9520    0.0000 N   0  0  0  0  0  0  0  0  0  0  0  0
    1.9520   -1.1270    0.0000 C   0  0  0  0  0  0  0  0  0  0  0  0
    1.2375   -0.7145    0.0000 C   0  0  0  0  0  0  0  0  0  0  0  0
    1.2375    0.1105    0.0000 C   0  0  0  0  0  0  0  0  0  0  0  0
    1.9520    0.5230    0.0000 O   0  0  0  0  0  0  0  0  0  0  0  0
    2.6664   -0.7145    0.0000 C   0  0  0  0  0  0  0  0  0  0  0  0
    3.3809   -1.1270    0.0000 O   0  0  0  0  0  0  0  0  0  0  0  0
    2.6664   -2.3645    0.0000 R#  0  0  0  0  0  0  0  0  0  0  0  0
    0.5230    0.5230    0.0000 R#  0  0  0  0  0  0  0  0  0  0  0  0
    2.6664    0.1105    0.0000 R#  0  0  0  0  0  0  0  0  0  0  0  0
  8  1  1  0
  2  1  1  0
  2  3  1  1
  3  4  1  0
  4  9  1  0
  4  5  2  0
  2  6  1  0
  6 10  1  0
  6  7  2  0
M  RGP  3   8   1   9   3  10   2
V    8 *
V    9 *
V   10 *
M  END
>  <m_name>  (3) 
Aspartic acid

>  <symbol>  (3) 
D

>  <m_abbr>  (3) 
D

>  <m_type>  (3) 
aa

>  <m_subtype>  (3) 
natural

>  <m_Rgroups>  (3) 
H,OH,OH,None

>  <m_RgroupIdx>  (3) 
7,9,8,None

>  <m_attachmentPointIdx>  (3) 
0,5,3,None

>  <natAnalog>  (3) 
D

>  <pdbName>  (3) 
ASP

$$$$

     RDKit          2D

 11 10  0  0  0  0  0  0  0  0999 V2000
    3.7125    3.5724    0.0000 N   0  0  0  0  0  0  0  0  0  0  0  0
    3.3000    2.8579    0.0000 C   0  0  0  0  0  0  0  0  0  0  0  0
    2.4750    2.8579    0.0000 C   0  0  0  0  0  0  0  0  0  0  0  0
    2.0625    2.1434    0.0000 C   0  0  0  0  0  0  0  0  0  0  0  0
    1.2375    2.1434    0.0000 C   0  0  0  0  0  0  0  0  0  0  0  0
    0.8250    2.8579    0.0000 O   0  0  0  0  0  0  0  0  0  0  0  0
    3.7125    2.1434    0.0000 C   0  0  0  0  0  0  0  0  0  0  0  0
    3.3000    1.4289    0.0000 O   0  0  0  0  0  0  0  0  0  0  0  0
    4.5375    3.5724    0.0000 R#  0  0  0  0  0  0  0  0  0  0  0  0
    0.8250    1.4289    0.0000 R#  0  0  0  0  0  0  0  0  0  0  0  0
    4.5375    2.1434    0.0000 R#  0  0  0  0  0  0  0  0  0  0  0  0
  9  1  1  0
  2  1  1  0
  2  3  1  6
  3  4  1  0
  4  5  1  0
  5 10  1  0
  5  6  2  0
  2  7  1  0
  7 11  1  0
  7  8  2  0
M  RGP  3   9   1  10   3  11   2
V    9 *
V   10 *
V   11 *
M  END
>  <m_name>  (4) 
Glutamic acid

>  <symbol>  (4) 
E

>  <m_abbr>  (4) 
E

>  <m_type>  (4) 
aa

>  <m_subtype>  (4) 
natural

>  <m_Rgroups>  (4) 
H,OH,OH,None

>  <m_RgroupIdx>  (4) 
8,10,9,None

>  <m_attachmentPointIdx>  (4) 
0,6,4,None

>  <natAnalog>  (4) 
E

>  <pdbName>  (4) 
GLU

$$$$

     RDKit          2D

 13 13  0  0  0  0  0  0  0  0999 V2000
    0.0000    3.3000    0.0000 N   0  0  0  0  0  0  0  0  0  0  0  0
    0.0000    2.4750    0.0000 C   0  0  0  0  0  0  0  0  0  0  0  0
    0.7145    2.0625    0.0000 C   0  0  0  0  0  0  0  0  0  0  0  0
    0.7145    1.2375    0.0000 C   0  0  0  0  0  0  0  0  0  0  0  0
    1.4289    0.8250    0.0000 C   0  0  0  0  0  0  0  0  0  0  0  0
    1.4289    0.0000    0.0000 C   0  0  0  0  0  0  0  0  0  0  0  0
    0.7145   -0.4125    0.0000 C   0  0  0  0  0  0  0  0  0  0  0  0
    0.0000    0.0000    0.0000 C   0  0  0  0  0  0  0  0  0  0  0  0
    0.0000    0.8250    0.0000 C   0  0  0  0  0  0  0  0  0  0  0  0
   -0.7145    2.0625    0.0000 C   0  0  0  0  0  0  0  0  0  0  0  0
   -1.4289    2.4750    0.0000 O   0  0  0  0  0  0  0  0  0  0  0  0
   -0.7145    3.7125    0.0000 R#  0  0  0  0  0  0  0  0  0  0  0  0
   -0.7145    1.2375    0.0000 R#  0  0  0  0  0  0  0  0  0  0  0  0
 12  1  1  0
  2  1  1  0
  2  3  1  1
  3  4  1  0
  4  5  2  0
  5  6  1  0
  6  7  2  0
  7  8  1  0
  8  9  2  0
  4  9  1  0
  2 10  1  0
 10 13  1  0
 10 11  2  0
M  RGP  2  12   1  13   2
V   12 *
V   13 *
M  END
>  <m_name>  (5) 
Phenylalanine

>  <symbol>  (5) 
F

>  <m_abbr>  (5) 
F

>  <m_type>  (5) 
aa

>  <m_subtype>  (5) 
natural

>  <m_Rgroups>  (5) 
H,OH,None,None

>  <m_RgroupIdx>  (5) 
11,12,None,None

>  <m_attachmentPointIdx>  (5) 
0,9,None,None

>  <natAnalog>  (5) 
F

>  <pdbName>  (5) 
PHE

$$$$

     RDKit          2D

  6  5  0  0  0  0  0  0  0  0999 V2000
    0.8250    1.4289    0.0000 N   0  0  0  0  0  0  0  0  0  0  0  0
    1.2375    0.7145    0.0000 C   0  0  0  0  0  0  0  0  0  0  0  0
    0.8250    0.0000    0.0000 C   0  0  0  0  0  0  0  0  0  0  0  0
    0.0000    0.0000    0.0000 O   0  0  0  0  0  0  0  0  0  0  0  0
    1.2375    2.1434    0.0000 R#  0  0  0  0  0  0  0  0  0  0  0  0
    1.2375   -0.7145    0.0000 R#  0  0  0  0  0  0  0  0  0  0  0  0
  5  1  1  0
  1  2  1  0
  2  3  1  0
  3  6  1  0
  3  4  2  0
M  RGP  2   5   1   6   2
V    5 *
V    6 *
M  END
>  <m_name>  (6) 
Glycine

>  <symbol>  (6) 
G

>  <m_abbr>  (6) 
G

>  <m_type>  (6) 
aa

>  <m_subtype>  (6) 
natural

>  <m_Rgroups>  (6) 
H,OH,None,None

>  <m_RgroupIdx>  (6) 
4,5,None,None

>  <m_attachmentPointIdx>  (6) 
0,2,None,None

>  <natAnalog>  (6) 
G

>  <pdbName>  (6) 
GLY

$$$$

     RDKit          2D

 12 12  0  0  0  0  0  0  0  0999 V2000
   -0.1467    3.1768    0.0000 N   0  0  0  0  0  0  0  0  0  0  0  0
   -0.1467    2.3518    0.0000 C   0  0  0  0  0  0  0  0  0  0  0  0
    0.5678    1.9393    0.0000 C   0  0  0  0  0  0  0  0  0  0  0  0
    0.5678    1.1143    0.0000 C   0  0  0  0  0  0  0  0  0  0  0  0
    1.2352    0.6294    0.0000 C   0  0  0  0  0  0  0  0  0  0  0  0
    0.9803   -0.1553    0.0000 N   0  0  0  0  0  0  0  0  0  0  0  0
    0.1553   -0.1553    0.0000 C   0  0  0  0  0  0  0  0  0  0  0  0
   -0.0997    0.6294    0.0000 N   0  0  0  0  0  0  0  0  0  0  0  0
   -0.8612    1.9393    0.0000 C   0  0  0  0  0  0  0  0  0  0  0  0
   -1.5757    2.3518    0.0000 O   0  0  0  0  0  0  0  0  0  0  0  0
   -0.8612    3.5893    0.0000 R#  0  0  0  0  0  0  0  0  0  0  0  0
   -0.8612    1.1143    0.0000 R#  0  0  0  0  0  0  0  0  0  0  0  0
 11  1  1  0
  2  1  1  0
  2  3  1  1
  3  4  1  0
  4  5  2  0
  5  6  1  0
  6  7  1  0
  7  8  2  0
  4  8  1  0
  2  9  1  0
  9 12  1  0
  9 10  2  0
M  RGP  2  11   1  12   2
V   11 *
V   12 *
M  END
>  <m_name>  (7) 
Histidine

>  <symbol>  (7) 
H

>  <m_abbr>  (7) 
H

>  <m_type>  (7) 
aa

>  <m_subtype>  (7) 
natural

>  <m_Rgroups>  (7) 
H,OH,None,None

>  <m_RgroupIdx>  (7) 
10,11,None,None

>  <m_attachmentPointIdx>  (7) 
0,8,None,None

>  <natAnalog>  (7) 
H

>  <pdbName>  (7) 
HIS

$$$$

     RDKit          2D

 10  9  0  0  0  0  0  0  0  0999 V2000
    0.5230    0.5230    0.0000 C   0  0  0  0  0  0  0  0  0  0  0  0
    1.2375    0.1105    0.0000 C   0  0  0  0  0  0  0  0  0  0  0  0
    1.2375   -0.7145    0.0000 C   0  0  0  0  0  0  0  0  0  0  0  0
    0.5230   -1.1270    0.0000 C   0  0  0  0  0  0  0  0  0  0  0  0
    1.9520   -1.1270    0.0000 C   0  0  0  0  0  0  0  0  0  0  0  0
    1.9520   -1.9520    0.0000 N   0  0  0  0  0  0  0  0  0  0  0  0
    2.6664   -0.7145    0.0000 C   0  0  0  0  0  0  0  0  0  0  0  0
    3.3809   -1.1270    0.0000 O   0  0  0  0  0  0  0  0  0  0  0  0
    2.6664   -2.3645    0.0000 R#  0  0  0  0  0  0  0  0  0  0  0  0
    2.6664    0.1105    0.0000 R#  0  0  0  0  0  0  0  0  0  0  0  0
  1  2  1  0
  3  2  1  0
  3  4  1  1
  3  5  1  0
  5  6  1  1
  6  9  1  0
  5  7  1  0
  7 10  1  0
  7  8  2  0
M  RGP  2   9   1  10   2
V    9 *
V   10 *
M  END
>  <m_name>  (8) 
Isoleucine

>  <symbol>  (8) 
I

>  <m_abbr>  (8) 
I

>  <m_type>  (8) 
aa

>  <m_subtype>  (8) 
natural

>  <m_Rgroups>  (8) 
H,OH,None,None

>  <m_RgroupIdx>  (8) 
8,9,None,None

>  <m_attachmentPointIdx>  (8) 
5,6,None,None

>  <natAnalog>  (8) 
I

>  <pdbName>  (8) 
ILE

$$$$

     RDKit          2D

 12 11  0  0  0  0  0  0  0  0999 V2000
    5.2882    4.9755    0.0000 N   0  0  0  0  0  0  0  0  0  0  0  0
    4.7481    4.3519    0.0000 C   0  0  0  0  0  0  0  0  0  0  0  0
    3.9379    4.5078    0.0000 C   0  0  0  0  0  0  0  0  0  0  0  0
    3.3979    3.8842    0.0000 C   0  0  0  0  0  0  0  0  0  0  0  0
    2.5877    4.0401    0.0000 C   0  0  0  0  0  0  0  0  0  0  0  0
    2.0476    3.4164    0.0000 C   0  0  0  0  0  0  0  0  0  0  0  0
    1.2375    3.5724    0.0000 N   0  0  0  0  0  0  0  0  0  0  0  0
    5.0181    3.5724    0.0000 C   0  0  0  0  0  0  0  0  0  0  0  0
    4.4780    2.9487    0.0000 O   0  0  0  0  0  0  0  0  0  0  0  0
    6.0983    4.8196    0.0000 R#  0  0  0  0  0  0  0  0  0  0  0  0
    0.6974    2.9487    0.0000 R#  0  0  0  0  0  0  0  0  0  0  0  0
    5.8283    3.4164    0.0000 R#  0  0  0  0  0  0  0  0  0  0  0  0
 10  1  1  0
  2  1  1  0
  2  3  1  6
  3  4  1  0
  4  5  1  0
  5  6  1  0
  6  7  1  0
  7 11  1  0
  2  8  1  0
  8 12  1  0
  8  9  2  0
M  RGP  3  10   1  11   3  12   2
V   10 *
V   11 *
V   12 *
M  END
>  <m_name>  (9) 
Lysine

>  <symbol>  (9) 
K

>  <m_abbr>  (9) 
K

>  <m_type>  (9) 
aa

>  <m_subtype>  (9) 
natural

>  <m_Rgroups>  (9) 
H,OH,H,None

>  <m_RgroupIdx>  (9) 
9,11,10,None

>  <m_attachmentPointIdx>  (9) 
0,7,6,None

>  <natAnalog>  (9) 
K

>  <pdbName>  (9) 
LYS

$$$$

     RDKit          2D

 10  9  0  0  0  0  0  0  0  0999 V2000
    0.5230    0.5230    0.0000 C   0  0  0  0  0  0  0  0  0  0  0  0
    1.2375    0.1105    0.0000 C   0  0  0  0  0  0  0  0  0  0  0  0
    1.9520    0.5230    0.0000 C   0  0  0  0  0  0  0  0  0  0  0  0
    1.2375   -0.7145    0.0000 C   0  0  0  0  0  0  0  0  0  0  0  0
    1.9520   -1.1270    0.0000 C   0  0  0  0  0  0  0  0  0  0  0  0
    1.9520   -1.9520    0.0000 N   0  0  0  0  0  0  0  0  0  0  0  0
    2.6664   -0.7145    0.0000 C   0  0  0  0  0  0  0  0  0  0  0  0
    3.3809   -1.1270    0.0000 O   0  0  0  0  0  0  0  0  0  0  0  0
    2.6664   -2.3645    0.0000 R#  0  0  0  0  0  0  0  0  0  0  0  0
    2.6664    0.1105    0.0000 R#  0  0  0  0  0  0  0  0  0  0  0  0
  1  2  1  0
  2  3  1  0
  2  4  1  0
  5  4  1  1
  5  6  1  0
  6  9  1  0
  5  7  1  0
  7 10  1  0
  7  8  2  0
M  RGP  2   9   1  10   2
V    9 *
V   10 *
M  END
>  <m_name>  (10) 
Leucine

>  <symbol>  (10) 
L

>  <m_abbr>  (10) 
L

>  <m_type>  (10) 
aa

>  <m_subtype>  (10) 
natural

>  <m_Rgroups>  (10) 
H,OH,None,None

>  <m_RgroupIdx>  (10) 
8,9,None,None

>  <m_attachmentPointIdx>  (10) 
5,6,None,None

>  <natAnalog>  (10) 
L

>  <pdbName>  (10) 
LEU

$$$$

     RDKit          2D

 10  9  0  0  0  0  0  0  0  0999 V2000
    0.8250   -1.4289    0.0000 C   0  0  0  0  0  0  0  0  0  0  0  0
    1.2375   -2.1434    0.0000 S   0  0  0  0  0  0  0  0  0  0  0  0
    2.0625   -2.1434    0.0000 C   0  0  0  0  0  0  0  0  0  0  0  0
    2.4750   -2.8579    0.0000 C   0  0  0  0  0  0  0  0  0  0  0  0
    3.3000   -2.8579    0.0000 C   0  0  0  0  0  0  0  0  0  0  0  0
    3.7125   -3.5724    0.0000 N   0  0  0  0  0  0  0  0  0  0  0  0
    3.7125   -2.1434    0.0000 C   0  0  0  0  0  0  0  0  0  0  0  0
    4.5375   -2.1434    0.0000 O   0  0  0  0  0  0  0  0  0  0  0  0
    4.5375   -3.5724    0.0000 R#  0  0  0  0  0  0  0  0  0  0  0  0
    3.3000   -1.4289    0.0000 R#  0  0  0  0  0  0  0  0  0  0  0  0
  1  2  1  0
  2  3  1  0
  3  4  1  0
  5  4  1  1
  5  6  1  0
  6  9  1  0
  5  7  1  0
  7 10  1  0
  7  8  2  0
M  RGP  2   9   1  10   2
V    9 *
V   10 *
M  END
>  <m_name>  (11) 
Methionine

>  <symbol>  (11) 
M

>  <m_abbr>  (11) 
M

>  <m_type>  (11) 
aa

>  <m_subtype>  (11) 
natural

>  <m_Rgroups>  (11) 
H,OH,None,None

>  <m_RgroupIdx>  (11) 
8,9,None,None

>  <m_attachmentPointIdx>  (11) 
5,6,None,None

>  <natAnalog>  (11) 
M

>  <pdbName>  (11) 
MET

$$$$

     RDKit          2D

 10  9  0  0  0  0  0  0  0  0999 V2000
    0.5230    0.5230    0.0000 N   0  0  0  0  0  0  0  0  0  0  0  0
    1.2375    0.1105    0.0000 C   0  0  0  0  0  0  0  0  0  0  0  0
    1.9520    0.5230    0.0000 O   0  0  0  0  0  0  0  0  0  0  0  0
    1.2375   -0.7145    0.0000 C   0  0  0  0  0  0  0  0  0  0  0  0
    1.9520   -1.1270    0.0000 C   0  0  0  0  0  0  0  0  0  0  0  0
    1.9520   -1.9520    0.0000 N   0  0  0  0  0  0  0  0  0  0  0  0
    2.6664   -0.7145    0.0000 C   0  0  0  0  0  0  0  0  0  0  0  0
    3.3809   -1.1270    0.0000 O   0  0  0  0  0  0  0  0  0  0  0  0
    2.6664   -2.3645    0.0000 R#  0  0  0  0  0  0  0  0  0  0  0  0
    2.6664    0.1105    0.0000 R#  0  0  0  0  0  0  0  0  0  0  0  0
  1  2  1  0
  2  3  2  0
  2  4  1  0
  5  4  1  1
  5  6  1  0
  6  9  1  0
  5  7  1  0
  7 10  1  0
  7  8  2  0
M  RGP  2   9   1  10   2
V    9 *
V   10 *
M  END
>  <m_name>  (12) 
Asparagine

>  <symbol>  (12) 
N

>  <m_abbr>  (12) 
N

>  <m_type>  (12) 
aa

>  <m_subtype>  (12) 
natural

>  <m_Rgroups>  (12) 
H,OH,None,None

>  <m_RgroupIdx>  (12) 
8,9,None,None

>  <m_attachmentPointIdx>  (12) 
5,6,None,None

>  <natAnalog>  (12) 
N

>  <pdbName>  (12) 
ASN

$$$$

     RDKit          2D

  9  9  0  0  0  0  0  0  0  0999 V2000
    0.5678    1.1143    0.0000 N   0  0  0  0  0  0  0  0  0  0  0  0
    1.2352    0.6294    0.0000 C   0  0  0  0  0  0  0  0  0  0  0  0
    0.9803   -0.1553    0.0000 C   0  0  0  0  0  0  0  0  0  0  0  0
    0.1553   -0.1553    0.0000 C   0  0  0  0  0  0  0  0  0  0  0  0
   -0.0997    0.6294    0.0000 C   0  0  0  0  0  0  0  0  0  0  0  0
   -0.8843    0.8843    0.0000 C   0  0  0  0  0  0  0  0  0  0  0  0
   -1.0558    1.6913    0.0000 O   0  0  0  0  0  0  0  0  0  0  0  0
    0.5678    1.9393    0.0000 R#  0  0  0  0  0  0  0  0  0  0  0  0
   -1.4974    0.3323    0.0000 R#  0  0  0  0  0  0  0  0  0  0  0  0
  8  1  1  0
  1  2  1  0
  2  3  1  0
  3  4  1  0
  5  4  1  0
  5  1  1  0
  5  6  1  1
  6  9  1  0
  6  7  2  0
M  RGP  2   8   1   9   2
V    8 *
V    9 *
M  END
>  <m_name>  (13) 
Proline

>  <symbol>  (13) 
P

>  <m_abbr>  (13) 
P

>  <m_type>  (13) 
aa

>  <m_subtype>  (13) 
natural

>  <m_Rgroups>  (13) 
H,OH,None,None

>  <m_RgroupIdx>  (13) 
7,8,None,None

>  <m_attachmentPointIdx>  (13) 
0,5,None,None

>  <natAnalog>  (13) 
P

>  <pdbName>  (13) 
PRO

$$$$

     RDKit          2D

 11 10  0  0  0  0  0  0  0  0999 V2000
    0.8250   -1.4289    0.0000 N   0  0  0  0  0  0  0  0  0  0  0  0
    1.2375   -2.1434    0.0000 C   0  0  0  0  0  0  0  0  0  0  0  0
    0.8250   -2.8579    0.0000 O   0  0  0  0  0  0  0  0  0  0  0  0
    2.0625   -2.1434    0.0000 C   0  0  0  0  0  0  0  0  0  0  0  0
    2.4750   -2.8579    0.0000 C   0  0  0  0  0  0  0  0  0  0  0  0
    3.3000   -2.8579    0.0000 C   0  0  0  0  0  0  0  0  0  0  0  0
    3.7125   -3.5724    0.0000 N   0  0  0  0  0  0  0  0  0  0  0  0
    3.7125   -2.1434    0.0000 C   0  0  0  0  0  0  0  0  0  0  0  0
    4.5375   -2.1434    0.0000 O   0  0  0  0  0  0  0  0  0  0  0  0
    4.5375   -3.5724    0.0000 R#  0  0  0  0  0  0  0  0  0  0  0  0
    3.3000   -1.4289    0.0000 R#  0  0  0  0  0  0  0  0  0  0  0  0
  1  2  1  0
  2  3  2  0
  2  4  1  0
  4  5  1  0
  6  5  1  1
  6  7  1  0
  7 10  1  0
  6  8  1  0
  8 11  1  0
  8  9  2  0
M  RGP  2  10   1  11   2
V   10 *
V   11 *
M  END
>  <m_name>  (14) 
Glutamine

>  <symbol>  (14) 
Q

>  <m_abbr>  (14) 
Q

>  <m_type>  (14) 
aa

>  <m_subtype>  (14) 
natural

>  <m_Rgroups>  (14) 
H,OH,None,None

>  <m_RgroupIdx>  (14) 
9,10,None,None

>  <m_attachmentPointIdx>  (14) 
6,7,None,None

>  <natAnalog>  (14) 
Q

>  <pdbName>  (14) 
GLN

$$$$

     RDKit          2D

 13 12  0  0  0  0  0  0  0  0999 V2000
    0.6974   -2.9487    0.0000 N   0  0  0  0  0  0  0  0  0  0  0  0
    1.2375   -3.5724    0.0000 C   0  0  0  0  0  0  0  0  0  0  0  0
    0.9675   -4.3519    0.0000 N   0  0  0  0  0  0  0  0  0  0  0  0
    2.0476   -3.4164    0.0000 N   0  0  0  0  0  0  0  0  0  0  0  0
    2.5877   -4.0401    0.0000 C   0  0  0  0  0  0  0  0  0  0  0  0
    3.3979   -3.8842    0.0000 C   0  0  0  0  0  0  0  0  0  0  0  0
    3.9379   -4.5078    0.0000 C   0  0  0  0  0  0  0  0  0  0  0  0
    4.7481   -4.3519    0.0000 C   0  0  0  0  0  0  0  0  0  0  0  0
    5.2882   -4.9755    0.0000 N   0  0  0  0  0  0  0  0  0  0  0  0
    5.0181   -3.5724    0.0000 C   0  0  0  0  0  0  0  0  0  0  0  0
    5.8283   -3.4164    0.0000 O   0  0  0  0  0  0  0  0  0  0  0  0
    6.0983   -4.8196    0.0000 R#  0  0  0  0  0  0  0  0  0  0  0  0
    4.4780   -2.9487    0.0000 R#  0  0  0  0  0  0  0  0  0  0  0  0
  1  2  1  0
  2  3  2  0
  2  4  1  0
  4  5  1  0
  5  6  1  0
  6  7  1  0
  8  7  1  1
  8  9  1  0
  9 12  1  0
  8 10  1  0
 10 13  1  0
 10 11  2  0
M  RGP  2  12   1  13   2
V   12 *
V   13 *
M  END
>  <m_name>  (15) 
Arginine

>  <symbol>  (15) 
R

>  <m_abbr>  (15) 
R

>  <m_type>  (15) 
aa

>  <m_subtype>  (15) 
natural

>  <m_Rgroups>  (15) 
H,OH,None,None

>  <m_RgroupIdx>  (15) 
11,12,None,None

>  <m_attachmentPointIdx>  (15) 
8,9,None,None

>  <natAnalog>  (15) 
R

>  <pdbName>  (15) 
ARG

$$$$

     RDKit          2D

  8  7  0  0  0  0  0  0  0  0999 V2000
    0.0000   -1.4289    0.0000 O   0  0  0  0  0  0  0  0  0  0  0  0
    0.8250   -1.4289    0.0000 C   0  0  0  0  0  0  0  0  0  0  0  0
    1.2375   -0.7145    0.0000 C   0  0  0  0  0  0  0  0  0  0  0  0
    2.0625   -0.7145    0.0000 N   0  0  0  0  0  0  0  0  0  0  0  0
    0.8250    0.0000    0.0000 C   0  0  0  0  0  0  0  0  0  0  0  0
    0.0000    0.0000    0.0000 O   0  0  0  0  0  0  0  0  0  0  0  0
    2.4750    0.0000    0.0000 R#  0  0  0  0  0  0  0  0  0  0  0  0
    1.2375    0.7145    0.0000 R#  0  0  0  0  0  0  0  0  0  0  0  0
  1  2  1  0
  3  2  1  1
  3  4  1  0
  4  7  1  0
  3  5  1  0
  5  8  1  0
  5  6  2  0
M  RGP  2   7   1   8   2
V    7 *
V    8 *
M  END
>  <m_name>  (16) 
Serine

>  <symbol>  (16) 
S

>  <m_abbr>  (16) 
S

>  <m_type>  (16) 
aa

>  <m_subtype>  (16) 
natural

>  <m_Rgroups>  (16) 
H,OH,None,None

>  <m_RgroupIdx>  (16) 
6,7,None,None

>  <m_attachmentPointIdx>  (16) 
3,4,None,None

>  <natAnalog>  (16) 
S

>  <pdbName>  (16) 
SER

$$$$

     RDKit          2D

  9  8  0  0  0  0  0  0  0  0999 V2000
    0.0000   -1.4289    0.0000 C   0  0  0  0  0  0  0  0  0  0  0  0
    0.8250   -1.4289    0.0000 C   0  0  0  0  0  0  0  0  0  0  0  0
    1.2375   -2.1434    0.0000 O   0  0  0  0  0  0  0  0  0  0  0  0
    1.2375   -0.7145    0.0000 C   0  0  0  0  0  0  0  0  0  0  0  0
    2.0625   -0.7145    0.0000 N   0  0  0  0  0  0  0  0  0  0  0  0
    0.8250    0.0000    0.0000 C   0  0  0  0  0  0  0  0  0  0  0  0
    0.0000    0.0000    0.0000 O   0  0  0  0  0  0  0  0  0  0  0  0
    2.4750    0.0000    0.0000 R#  0  0  0  0  0  0  0  0  0  0  0  0
    1.2375    0.7145    0.0000 R#  0  0  0  0  0  0  0  0  0  0  0  0
  2  1  1  6
  2  3  1  0
  2  4  1  0
  4  5  1  1
  5  8  1  0
  4  6  1  0
  6  9  1  0
  6  7  2  0
M  RGP  2   8   1   9   2
V    8 *
V    9 *
M  END
>  <m_name>  (17) 
Threonine

>  <symbol>  (17) 
T

>  <m_abbr>  (17) 
T

>  <m_type>  (17) 
aa

>  <m_subtype>  (17) 
natural

>  <m_Rgroups>  (17) 
H,OH,None,None

>  <m_RgroupIdx>  (17) 
7,8,None,None

>  <m_attachmentPointIdx>  (17) 
4,5,None,None

>  <natAnalog>  (17) 
T

>  <pdbName>  (17) 
THR

$$$$

     RDKit          2D

  9  8  0  0  0  0  0  0  0  0999 V2000
    0.0000   -1.4289    0.0000 C   0  0  0  0  0  0  0  0  0  0  0  0
    0.8250   -1.4289    0.0000 C   0  0  0  0  0  0  0  0  0  0  0  0
    1.2375   -2.1434    0.0000 C   0  0  0  0  0  0  0  0  0  0  0  0
    1.2375   -0.7145    0.0000 C   0  0  0  0  0  0  0  0  0  0  0  0
    2.0625   -0.7145    0.0000 N   0  0  0  0  0  0  0  0  0  0  0  0
    0.8250    0.0000    0.0000 C   0  0  0  0  0  0  0  0  0  0  0  0
    0.0000    0.0000    0.0000 O   0  0  0  0  0  0  0  0  0  0  0  0
    2.4750    0.0000    0.0000 R#  0  0  0  0  0  0  0  0  0  0  0  0
    1.2375    0.7145    0.0000 R#  0  0  0  0  0  0  0  0  0  0  0  0
  1  2  1  0
  2  3  1  0
  4  2  1  0
  4  5  1  1
  5  8  1  0
  4  6  1  0
  6  9  1  0
  6  7  2  0
M  RGP  2   8   1   9   2
V    8 *
V    9 *
M  END
>  <m_name>  (18) 
Valine

>  <symbol>  (18) 
V

>  <m_abbr>  (18) 
V

>  <m_type>  (18) 
aa

>  <m_subtype>  (18) 
natural

>  <m_Rgroups>  (18) 
H,OH,None,None

>  <m_RgroupIdx>  (18) 
7,8,None,None

>  <m_attachmentPointIdx>  (18) 
4,5,None,None

>  <natAnalog>  (18) 
V

>  <pdbName>  (18) 
VAL

$$$$

     RDKit          2D

 16 17  0  0  0  0  0  0  0  0999 V2000
   -0.1781   -3.1062    0.0000 N   0  0  0  0  0  0  0  0  0  0  0  0
    0.0768   -2.3215    0.0000 C   0  0  0  0  0  0  0  0  0  0  0  0
    0.8838   -2.1500    0.0000 C   0  0  0  0  0  0  0  0  0  0  0  0
    1.1387   -1.3654    0.0000 C   0  0  0  0  0  0  0  0  0  0  0  0
    0.6538   -0.6979    0.0000 C   0  0  0  0  0  0  0  0  0  0  0  0
    1.1387   -0.0305    0.0000 N   0  0  0  0  0  0  0  0  0  0  0  0
    1.9233   -0.2854    0.0000 C   0  0  0  0  0  0  0  0  0  0  0  0
    2.6378    0.1271    0.0000 C   0  0  0  0  0  0  0  0  0  0  0  0
    3.3523   -0.2854    0.0000 C   0  0  0  0  0  0  0  0  0  0  0  0
    3.3523   -1.1104    0.0000 C   0  0  0  0  0  0  0  0  0  0  0  0
    2.6378   -1.5229    0.0000 C   0  0  0  0  0  0  0  0  0  0  0  0
    1.9233   -1.1104    0.0000 C   0  0  0  0  0  0  0  0  0  0  0  0
   -0.4752   -1.7084    0.0000 C   0  0  0  0  0  0  0  0  0  0  0  0
   -1.2822   -1.8800    0.0000 O   0  0  0  0  0  0  0  0  0  0  0  0
   -0.9851   -3.2777    0.0000 R#  0  0  0  0  0  0  0  0  0  0  0  0
   -0.2203   -0.9238    0.0000 R#  0  0  0  0  0  0  0  0  0  0  0  0
 15  1  1  0
  2  1  1  0
  2  3  1  6
  3  4  1  0
  4  5  2  0
  5  6  1  0
  6  7  1  0
  7  8  2  0
  8  9  1  0
  9 10  2  0
 10 11  1  0
 11 12  2  0
  4 12  1  0
  7 12  1  0
  2 13  1  0
 13 16  1  0
 13 14  2  0
M  RGP  2  15   1  16   2
V   15 *
V   16 *
M  END
>  <m_name>  (19) 
Tryptophan

>  <symbol>  (19) 
W

>  <m_abbr>  (19) 
W

>  <m_type>  (19) 
aa

>  <m_subtype>  (19) 
natural

>  <m_Rgroups>  (19) 
H,OH,None,None

>  <m_RgroupIdx>  (19) 
14,15,None,None

>  <m_attachmentPointIdx>  (19) 
0,12,None,None

>  <natAnalog>  (19) 
W

>  <pdbName>  (19) 
TRP

$$$$

     RDKit          2D

 14 14  0  0  0  0  0  0  0  0999 V2000
    0.7145    2.0625    0.0000 O   0  0  0  0  0  0  0  0  0  0  0  0
    0.7145    1.2375    0.0000 C   0  0  0  0  0  0  0  0  0  0  0  0
    1.4289    0.8250    0.0000 C   0  0  0  0  0  0  0  0  0  0  0  0
    1.4289    0.0000    0.0000 C   0  0  0  0  0  0  0  0  0  0  0  0
    0.7145   -0.4125    0.0000 C   0  0  0  0  0  0  0  0  0  0  0  0
    0.7145   -1.2375    0.0000 C   0  0  0  0  0  0  0  0  0  0  0  0
    1.4289   -1.6500    0.0000 C   0  0  0  0  0  0  0  0  0  0  0  0
    1.4289   -2.4750    0.0000 N   0  0  0  0  0  0  0  0  0  0  0  0
    2.1434   -1.2375    0.0000 C   0  0  0  0  0  0  0  0  0  0  0  0
    2.1434   -0.4125    0.0000 O   0  0  0  0  0  0  0  0  0  0  0  0
    0.0000    0.0000    0.0000 C   0  0  0  0  0  0  0  0  0  0  0  0
    0.0000    0.8250    0.0000 C   0  0  0  0  0  0  0  0  0  0  0  0
    2.1434   -2.8875    0.0000 R#  0  0  0  0  0  0  0  0  0  0  0  0
    2.8579   -1.6500    0.0000 R#  0  0  0  0  0  0  0  0  0  0  0  0
  1  2  1  0
  2  3  2  0
  3  4  1  0
  4  5  2  0
  5  6  1  0
  7  6  1  1
  7  8  1  0
  8 13  1  0
  7  9  1  0
  9 14  1  0
  9 10  2  0
  5 11  1  0
 11 12  2  0
  2 12  1  0
M  RGP  2  13   1  14   2
V   13 *
V   14 *
M  END
>  <m_name>  (20) 
Tyrosine

>  <symbol>  (20) 
Y

>  <m_abbr>  (20) 
Y

>  <m_type>  (20) 
aa

>  <m_subtype>  (20) 
natural

>  <m_Rgroups>  (20) 
H,OH,None,None

>  <m_RgroupIdx>  (20) 
12,13,None,None

>  <m_attachmentPointIdx>  (20) 
7,8,None,None

>  <natAnalog>  (20) 
Y

>  <pdbName>  (20) 
TYR

$$$$

     RDKit          2D

  7  6  0  0  0  0  0  0  0  0999 V2000
    2.0625    0.7145    0.0000 C   0  0  0  0  0  0  0  0  0  0  0  0
    1.2375    0.7145    0.0000 C   0  0  0  0  0  0  0  0  0  0  0  0
    0.8250    1.4289    0.0000 N   0  0  0  0  0  0  0  0  0  0  0  0
    0.8250    0.0000    0.0000 C   0  0  0  0  0  0  0  0  0  0  0  0
    0.0000    0.0000    0.0000 O   0  0  0  0  0  0  0  0  0  0  0  0
    1.2375    2.1434    0.0000 R#  0  0  0  0  0  0  0  0  0  0  0  0
    1.2375   -0.7145    0.0000 R#  0  0  0  0  0  0  0  0  0  0  0  0
  2  1  1  6
  2  3  1  0
  3  6  1  0
  2  4  1  0
  4  7  1  0
  4  5  2  0
M  RGP  2   6   1   7   2
V    6 *
V    7 *
M  END
>  <m_name>  (21) 
D-Alanine

>  <symbol>  (21) 
dA

>  <m_abbr>  (21) 
dA

>  <m_type>  (21) 
aa

>  <m_subtype>  (21) 
non-natural

>  <m_Rgroups>  (21) 
H,OH,None,None

>  <m_RgroupIdx>  (21) 
5,6,None,None

>  <m_attachmentPointIdx>  (21) 
2,3,None,None

>  <natAnalog>  (21) 
A

>  <pdbName>  (21) 
DA0

$$$$

     RDKit          2D

  9  8  0  0  0  0  0  0  0  0999 V2000
    1.9520   -1.9520    0.0000 N   0  0  0  0  0  0  0  0  0  0  0  0
    1.9520   -1.1270    0.0000 C   0  0  0  0  0  0  0  0  0  0  0  0
    1.2375   -0.7145    0.0000 C   0  0  0  0  0  0  0  0  0  0  0  0
    1.2375    0.1105    0.0000 S   0  0  0  0  0  0  0  0  0  0  0  0
    2.6664   -0.7145    0.0000 C   0  0  0  0  0  0  0  0  0  0  0  0
    3.3809   -1.1270    0.0000 O   0  0  0  0  0  0  0  0  0  0  0  0
    2.6664   -2.3645    0.0000 R#  0  0  0  0  0  0  0  0  0  0  0  0
    0.5230    0.5230    0.0000 R#  0  0  0  0  0  0  0  0  0  0  0  0
    2.6664    0.1105    0.0000 R#  0  0  0  0  0  0  0  0  0  0  0  0
  7  1  1  0
  2  1  1  0
  2  3  1  6
  3  4  1  0
  4  8  1  0
  2  5  1  0
  5  9  1  0
  5  6  2  0
M  RGP  3   7   1   8   3   9   2
V    7 *
V    8 *
V    9 *
M  END
>  <m_name>  (22) 
D-Cysteine

>  <symbol>  (22) 
dC

>  <m_abbr>  (22) 
dC

>  <m_type>  (22) 
aa

>  <m_subtype>  (22) 
non-natural

>  <m_Rgroups>  (22) 
H,OH,H,None

>  <m_RgroupIdx>  (22) 
6,8,7,None

>  <m_attachmentPointIdx>  (22) 
0,4,3,None

>  <natAnalog>  (22) 
C

>  <pdbName>  (22) 
DC6

$$$$

     RDKit          2D

 10  9  0  0  0  0  0  0  0  0999 V2000
    1.9520   -1.9520    0.0000 N   0  0  0  0  0  0  0  0  0  0  0  0
    1.9520   -1.1270    0.0000 C   0  0  0  0  0  0  0  0  0  0  0  0
    1.2375   -0.7145    0.0000 C   0  0  0  0  0  0  0  0  0  0  0  0
    1.2375    0.1105    0.0000 C   0  0  0  0  0  0  0  0  0  0  0  0
    1.9520    0.5230    0.0000 O   0  0  0  0  0  0  0  0  0  0  0  0
    2.6664   -0.7145    0.0000 C   0  0  0  0  0  0  0  0  0  0  0  0
    3.3809   -1.1270    0.0000 O   0  0  0  0  0  0  0  0  0  0  0  0
    2.6664   -2.3645    0.0000 R#  0  0  0  0  0  0  0  0  0  0  0  0
    0.5230    0.5230    0.0000 R#  0  0  0  0  0  0  0  0  0  0  0  0
    2.6664    0.1105    0.0000 R#  0  0  0  0  0  0  0  0  0  0  0  0
  8  1  1  0
  2  1  1  0
  2  3  1  6
  3  4  1  0
  4  9  1  0
  4  5  2  0
  2  6  1  0
  6 10  1  0
  6  7  2  0
M  RGP  3   8   1   9   3  10   2
V    8 *
V    9 *
V   10 *
M  END
>  <m_name>  (23) 
D-Aspartic acid

>  <symbol>  (23) 
dD

>  <m_abbr>  (23) 
dD

>  <m_type>  (23) 
aa

>  <m_subtype>  (23) 
non-natural

>  <m_Rgroups>  (23) 
H,OH,OH,None

>  <m_RgroupIdx>  (23) 
7,9,8,None

>  <m_attachmentPointIdx>  (23) 
0,5,3,None

>  <natAnalog>  (23) 
D

>  <pdbName>  (23) 
DD0

$$$$

     RDKit          2D

 11 10  0  0  0  0  0  0  0  0999 V2000
    3.7125    3.5724    0.0000 N   0  0  0  0  0  0  0  0  0  0  0  0
    3.3000    2.8579    0.0000 C   0  0  0  0  0  0  0  0  0  0  0  0
    2.4750    2.8579    0.0000 C   0  0  0  0  0  0  0  0  0  0  0  0
    2.0625    2.1434    0.0000 C   0  0  0  0  0  0  0  0  0  0  0  0
    1.2375    2.1434    0.0000 C   0  0  0  0  0  0  0  0  0  0  0  0
    0.8250    2.8579    0.0000 O   0  0  0  0  0  0  0  0  0  0  0  0
    3.7125    2.1434    0.0000 C   0  0  0  0  0  0  0  0  0  0  0  0
    3.3000    1.4289    0.0000 O   0  0  0  0  0  0  0  0  0  0  0  0
    4.5375    3.5724    0.0000 R#  0  0  0  0  0  0  0  0  0  0  0  0
    0.8250    1.4289    0.0000 R#  0  0  0  0  0  0  0  0  0  0  0  0
    4.5375    2.1434    0.0000 R#  0  0  0  0  0  0  0  0  0  0  0  0
  9  1  1  0
  2  1  1  0
  2  3  1  1
  3  4  1  0
  4  5  1  0
  5 10  1  0
  5  6  2  0
  2  7  1  0
  7 11  1  0
  7  8  2  0
M  RGP  3   9   1  10   3  11   2
V    9 *
V   10 *
V   11 *
M  END
>  <m_name>  (24) 
D-Glutamic acid

>  <symbol>  (24) 
dE

>  <m_abbr>  (24) 
dE

>  <m_type>  (24) 
aa

>  <m_subtype>  (24) 
non-natural

>  <m_Rgroups>  (24) 
H,OH,OH,None

>  <m_RgroupIdx>  (24) 
8,10,9,None

>  <m_attachmentPointIdx>  (24) 
0,6,4,None

>  <natAnalog>  (24) 
E

>  <pdbName>  (24) 
DEK

$$$$

     RDKit          2D

 13 13  0  0  0  0  0  0  0  0999 V2000
    0.0000    3.3000    0.0000 N   0  0  0  0  0  0  0  0  0  0  0  0
    0.0000    2.4750    0.0000 C   0  0  0  0  0  0  0  0  0  0  0  0
    0.7145    2.0625    0.0000 C   0  0  0  0  0  0  0  0  0  0  0  0
    0.7145    1.2375    0.0000 C   0  0  0  0  0  0  0  0  0  0  0  0
    1.4289    0.8250    0.0000 C   0  0  0  0  0  0  0  0  0  0  0  0
    1.4289    0.0000    0.0000 C   0  0  0  0  0  0  0  0  0  0  0  0
    0.7145   -0.4125    0.0000 C   0  0  0  0  0  0  0  0  0  0  0  0
    0.0000    0.0000    0.0000 C   0  0  0  0  0  0  0  0  0  0  0  0
    0.0000    0.8250    0.0000 C   0  0  0  0  0  0  0  0  0  0  0  0
   -0.7145    2.0625    0.0000 C   0  0  0  0  0  0  0  0  0  0  0  0
   -1.4289    2.4750    0.0000 O   0  0  0  0  0  0  0  0  0  0  0  0
   -0.7145    3.7125    0.0000 R#  0  0  0  0  0  0  0  0  0  0  0  0
   -0.7145    1.2375    0.0000 R#  0  0  0  0  0  0  0  0  0  0  0  0
 12  1  1  0
  2  1  1  0
  2  3  1  6
  3  4  1  0
  4  5  2  0
  5  6  1  0
  6  7  2  0
  7  8  1  0
  8  9  2  0
  4  9  1  0
  2 10  1  0
 10 13  1  0
 10 11  2  0
M  RGP  2  12   1  13   2
V   12 *
V   13 *
M  END
>  <m_name>  (25) 
D-Phenylalanine

>  <symbol>  (25) 
dF

>  <m_abbr>  (25) 
dF

>  <m_type>  (25) 
aa

>  <m_subtype>  (25) 
non-natural

>  <m_Rgroups>  (25) 
H,OH,None,None

>  <m_RgroupIdx>  (25) 
11,12,None,None

>  <m_attachmentPointIdx>  (25) 
0,9,None,None

>  <natAnalog>  (25) 
F

>  <pdbName>  (25) 
DBL

$$$$

     RDKit          2D

 12 12  0  0  0  0  0  0  0  0999 V2000
   -0.1467    3.1768    0.0000 N   0  0  0  0  0  0  0  0  0  0  0  0
   -0.1467    2.3518    0.0000 C   0  0  0  0  0  0  0  0  0  0  0  0
    0.5678    1.9393    0.0000 C   0  0  0  0  0  0  0  0  0  0  0  0
    0.5678    1.1143    0.0000 C   0  0  0  0  0  0  0  0  0  0  0  0
    1.2352    0.6294    0.0000 C   0  0  0  0  0  0  0  0  0  0  0  0
    0.9803   -0.1553    0.0000 N   0  0  0  0  0  0  0  0  0  0  0  0
    0.1553   -0.1553    0.0000 C   0  0  0  0  0  0  0  0  0  0  0  0
   -0.0997    0.6294    0.0000 N   0  0  0  0  0  0  0  0  0  0  0  0
   -0.8612    1.9393    0.0000 C   0  0  0  0  0  0  0  0  0  0  0  0
   -1.5757    2.3518    0.0000 O   0  0  0  0  0  0  0  0  0  0  0  0
   -0.8612    3.5893    0.0000 R#  0  0  0  0  0  0  0  0  0  0  0  0
   -0.8612    1.1143    0.0000 R#  0  0  0  0  0  0  0  0  0  0  0  0
 11  1  1  0
  2  1  1  0
  2  3  1  6
  3  4  1  0
  4  5  2  0
  5  6  1  0
  6  7  1  0
  7  8  2  0
  4  8  1  0
  2  9  1  0
  9 12  1  0
  9 10  2  0
M  RGP  2  11   1  12   2
V   11 *
V   12 *
M  END
>  <m_name>  (26) 
D-Histidine

>  <symbol>  (26) 
dH

>  <m_abbr>  (26) 
dH

>  <m_type>  (26) 
aa

>  <m_subtype>  (26) 
non-natural

>  <m_Rgroups>  (26) 
H,OH,None,None

>  <m_RgroupIdx>  (26) 
10,11,None,None

>  <m_attachmentPointIdx>  (26) 
0,8,None,None

>  <natAnalog>  (26) 
H

>  <pdbName>  (26) 
DHW

$$$$

     RDKit          2D

 10  9  0  0  0  0  0  0  0  0999 V2000
    0.5230    0.5230    0.0000 C   0  0  0  0  0  0  0  0  0  0  0  0
    1.2375    0.1105    0.0000 C   0  0  0  0  0  0  0  0  0  0  0  0
    1.2375   -0.7145    0.0000 C   0  0  0  0  0  0  0  0  0  0  0  0
    0.5230   -1.1270    0.0000 C   0  0  0  0  0  0  0  0  0  0  0  0
    1.9520   -1.1270    0.0000 C   0  0  0  0  0  0  0  0  0  0  0  0
    1.9520   -1.9520    0.0000 N   0  0  0  0  0  0  0  0  0  0  0  0
    2.6664   -0.7145    0.0000 C   0  0  0  0  0  0  0  0  0  0  0  0
    3.3809   -1.1270    0.0000 O   0  0  0  0  0  0  0  0  0  0  0  0
    2.6664   -2.3645    0.0000 R#  0  0  0  0  0  0  0  0  0  0  0  0
    2.6664    0.1105    0.0000 R#  0  0  0  0  0  0  0  0  0  0  0  0
  1  2  1  0
  3  2  1  0
  3  4  1  6
  3  5  1  0
  5  6  1  6
  6  9  1  0
  5  7  1  0
  7 10  1  0
  7  8  2  0
M  RGP  2   9   1  10   2
V    9 *
V   10 *
M  END
>  <m_name>  (27) 
D-Isoleucine

>  <symbol>  (27) 
dI

>  <m_abbr>  (27) 
dI

>  <m_type>  (27) 
aa

>  <m_subtype>  (27) 
non-natural

>  <m_Rgroups>  (27) 
H,OH,None,None

>  <m_RgroupIdx>  (27) 
8,9,None,None

>  <m_attachmentPointIdx>  (27) 
5,6,None,None

>  <natAnalog>  (27) 
I

>  <pdbName>  (27) 
DIJ

$$$$

     RDKit          2D

 12 11  0  0  0  0  0  0  0  0999 V2000
    5.2882    4.9755    0.0000 N   0  0  0  0  0  0  0  0  0  0  0  0
    4.7481    4.3519    0.0000 C   0  0  0  0  0  0  0  0  0  0  0  0
    3.9379    4.5078    0.0000 C   0  0  0  0  0  0  0  0  0  0  0  0
    3.3979    3.8842    0.0000 C   0  0  0  0  0  0  0  0  0  0  0  0
    2.5877    4.0401    0.0000 C   0  0  0  0  0  0  0  0  0  0  0  0
    2.0476    3.4164    0.0000 C   0  0  0  0  0  0  0  0  0  0  0  0
    1.2375    3.5724    0.0000 N   0  0  0  0  0  0  0  0  0  0  0  0
    5.0181    3.5724    0.0000 C   0  0  0  0  0  0  0  0  0  0  0  0
    4.4780    2.9487    0.0000 O   0  0  0  0  0  0  0  0  0  0  0  0
    6.0983    4.8196    0.0000 R#  0  0  0  0  0  0  0  0  0  0  0  0
    0.6974    2.9487    0.0000 R#  0  0  0  0  0  0  0  0  0  0  0  0
    5.8283    3.4164    0.0000 R#  0  0  0  0  0  0  0  0  0  0  0  0
 10  1  1  0
  2  1  1  0
  2  3  1  1
  3  4  1  0
  4  5  1  0
  5  6  1  0
  6  7  1  0
  7 11  1  0
  2  8  1  0
  8 12  1  0
  8  9  2  0
M  RGP  3  10   1  11   3  12   2
V   10 *
V   11 *
V   12 *
M  END
>  <m_name>  (28) 
D-Lysine

>  <symbol>  (28) 
dK

>  <m_abbr>  (28) 
dK

>  <m_type>  (28) 
aa

>  <m_subtype>  (28) 
non-natural

>  <m_Rgroups>  (28) 
H,OH,H,None

>  <m_RgroupIdx>  (28) 
9,11,10,None

>  <m_attachmentPointIdx>  (28) 
0,7,6,None

>  <natAnalog>  (28) 
K

>  <pdbName>  (28) 
DKB

$$$$

     RDKit          2D

 10  9  0  0  0  0  0  0  0  0999 V2000
    0.5230    0.5230    0.0000 C   0  0  0  0  0  0  0  0  0  0  0  0
    1.2375    0.1105    0.0000 C   0  0  0  0  0  0  0  0  0  0  0  0
    1.9520    0.5230    0.0000 C   0  0  0  0  0  0  0  0  0  0  0  0
    1.2375   -0.7145    0.0000 C   0  0  0  0  0  0  0  0  0  0  0  0
    1.9520   -1.1270    0.0000 C   0  0  0  0  0  0  0  0  0  0  0  0
    1.9520   -1.9520    0.0000 N   0  0  0  0  0  0  0  0  0  0  0  0
    2.6664   -0.7145    0.0000 C   0  0  0  0  0  0  0  0  0  0  0  0
    3.3809   -1.1270    0.0000 O   0  0  0  0  0  0  0  0  0  0  0  0
    2.6664   -2.3645    0.0000 R#  0  0  0  0  0  0  0  0  0  0  0  0
    2.6664    0.1105    0.0000 R#  0  0  0  0  0  0  0  0  0  0  0  0
  1  2  1  0
  2  3  1  0
  2  4  1  0
  5  4  1  6
  5  6  1  0
  6  9  1  0
  5  7  1  0
  7 10  1  0
  7  8  2  0
M  RGP  2   9   1  10   2
V    9 *
V   10 *
M  END
>  <m_name>  (29) 
D-Leucine

>  <symbol>  (29) 
dL

>  <m_abbr>  (29) 
dL

>  <m_type>  (29) 
aa

>  <m_subtype>  (29) 
non-natural

>  <m_Rgroups>  (29) 
H,OH,None,None

>  <m_RgroupIdx>  (29) 
8,9,None,None

>  <m_attachmentPointIdx>  (29) 
5,6,None,None

>  <natAnalog>  (29) 
L

>  <pdbName>  (29) 
DLO

$$$$

     RDKit          2D

 10  9  0  0  0  0  0  0  0  0999 V2000
    0.8250   -1.4289    0.0000 C   0  0  0  0  0  0  0  0  0  0  0  0
    1.2375   -2.1434    0.0000 S   0  0  0  0  0  0  0  0  0  0  0  0
    2.0625   -2.1434    0.0000 C   0  0  0  0  0  0  0  0  0  0  0  0
    2.4750   -2.8579    0.0000 C   0  0  0  0  0  0  0  0  0  0  0  0
    3.3000   -2.8579    0.0000 C   0  0  0  0  0  0  0  0  0  0  0  0
    3.7125   -3.5724    0.0000 N   0  0  0  0  0  0  0  0  0  0  0  0
    3.7125   -2.1434    0.0000 C   0  0  0  0  0  0  0  0  0  0  0  0
    4.5375   -2.1434    0.0000 O   0  0  0  0  0  0  0  0  0  0  0  0
    4.5375   -3.5724    0.0000 R#  0  0  0  0  0  0  0  0  0  0  0  0
    3.3000   -1.4289    0.0000 R#  0  0  0  0  0  0  0  0  0  0  0  0
  1  2  1  0
  2  3  1  0
  3  4  1  0
  5  4  1  6
  5  6  1  0
  6  9  1  0
  5  7  1  0
  7 10  1  0
  7  8  2  0
M  RGP  2   9   1  10   2
V    9 *
V   10 *
M  END
>  <m_name>  (30) 
D-Methionine

>  <symbol>  (30) 
dM

>  <m_abbr>  (30) 
dM

>  <m_type>  (30) 
aa

>  <m_subtype>  (30) 
non-natural

>  <m_Rgroups>  (30) 
H,OH,None,None

>  <m_RgroupIdx>  (30) 
8,9,None,None

>  <m_attachmentPointIdx>  (30) 
5,6,None,None

>  <natAnalog>  (30) 
M

>  <pdbName>  (30) 
DB2

$$$$

     RDKit          2D

 10  9  0  0  0  0  0  0  0  0999 V2000
    0.5230    0.5230    0.0000 N   0  0  0  0  0  0  0  0  0  0  0  0
    1.2375    0.1105    0.0000 C   0  0  0  0  0  0  0  0  0  0  0  0
    1.9520    0.5230    0.0000 O   0  0  0  0  0  0  0  0  0  0  0  0
    1.2375   -0.7145    0.0000 C   0  0  0  0  0  0  0  0  0  0  0  0
    1.9520   -1.1270    0.0000 C   0  0  0  0  0  0  0  0  0  0  0  0
    1.9520   -1.9520    0.0000 N   0  0  0  0  0  0  0  0  0  0  0  0
    2.6664   -0.7145    0.0000 C   0  0  0  0  0  0  0  0  0  0  0  0
    3.3809   -1.1270    0.0000 O   0  0  0  0  0  0  0  0  0  0  0  0
    2.6664   -2.3645    0.0000 R#  0  0  0  0  0  0  0  0  0  0  0  0
    2.6664    0.1105    0.0000 R#  0  0  0  0  0  0  0  0  0  0  0  0
  1  2  1  0
  2  3  2  0
  2  4  1  0
  5  4  1  6
  5  6  1  0
  6  9  1  0
  5  7  1  0
  7 10  1  0
  7  8  2  0
M  RGP  2   9   1  10   2
V    9 *
V   10 *
M  END
>  <m_name>  (31) 
D-Asparagine

>  <symbol>  (31) 
dN

>  <m_abbr>  (31) 
dN

>  <m_type>  (31) 
aa

>  <m_subtype>  (31) 
non-natural

>  <m_Rgroups>  (31) 
H,OH,None,None

>  <m_RgroupIdx>  (31) 
8,9,None,None

>  <m_attachmentPointIdx>  (31) 
5,6,None,None

>  <natAnalog>  (31) 
N

>  <pdbName>  (31) 
DNI

$$$$

     RDKit          2D

  9  9  0  0  0  0  0  0  0  0999 V2000
    0.5678    1.1143    0.0000 N   0  0  0  0  0  0  0  0  0  0  0  0
    1.2352    0.6294    0.0000 C   0  0  0  0  0  0  0  0  0  0  0  0
    0.9803   -0.1553    0.0000 C   0  0  0  0  0  0  0  0  0  0  0  0
    0.1553   -0.1553    0.0000 C   0  0  0  0  0  0  0  0  0  0  0  0
   -0.0997    0.6294    0.0000 C   0  0  0  0  0  0  0  0  0  0  0  0
   -0.8843    0.8843    0.0000 C   0  0  0  0  0  0  0  0  0  0  0  0
   -1.0558    1.6913    0.0000 O   0  0  0  0  0  0  0  0  0  0  0  0
    0.5678    1.9393    0.0000 R#  0  0  0  0  0  0  0  0  0  0  0  0
   -1.4974    0.3323    0.0000 R#  0  0  0  0  0  0  0  0  0  0  0  0
  8  1  1  0
  1  2  1  0
  2  3  1  0
  3  4  1  0
  5  4  1  0
  5  1  1  0
  5  6  1  6
  6  9  1  0
  6  7  2  0
M  RGP  2   8   1   9   2
V    8 *
V    9 *
M  END
>  <m_name>  (32) 
D-Proline

>  <symbol>  (32) 
dP

>  <m_abbr>  (32) 
dP

>  <m_type>  (32) 
aa

>  <m_subtype>  (32) 
non-natural

>  <m_Rgroups>  (32) 
H,OH,None,None

>  <m_RgroupIdx>  (32) 
7,8,None,None

>  <m_attachmentPointIdx>  (32) 
0,5,None,None

>  <natAnalog>  (32) 
P

>  <pdbName>  (32) 
DPI

$$$$

     RDKit          2D

 11 10  0  0  0  0  0  0  0  0999 V2000
    0.8250   -1.4289    0.0000 N   0  0  0  0  0  0  0  0  0  0  0  0
    1.2375   -2.1434    0.0000 C   0  0  0  0  0  0  0  0  0  0  0  0
    0.8250   -2.8579    0.0000 O   0  0  0  0  0  0  0  0  0  0  0  0
    2.0625   -2.1434    0.0000 C   0  0  0  0  0  0  0  0  0  0  0  0
    2.4750   -2.8579    0.0000 C   0  0  0  0  0  0  0  0  0  0  0  0
    3.3000   -2.8579    0.0000 C   0  0  0  0  0  0  0  0  0  0  0  0
    3.7125   -3.5724    0.0000 N   0  0  0  0  0  0  0  0  0  0  0  0
    3.7125   -2.1434    0.0000 C   0  0  0  0  0  0  0  0  0  0  0  0
    4.5375   -2.1434    0.0000 O   0  0  0  0  0  0  0  0  0  0  0  0
    4.5375   -3.5724    0.0000 R#  0  0  0  0  0  0  0  0  0  0  0  0
    3.3000   -1.4289    0.0000 R#  0  0  0  0  0  0  0  0  0  0  0  0
  1  2  1  0
  2  3  2  0
  2  4  1  0
  4  5  1  0
  6  5  1  6
  6  7  1  0
  7 10  1  0
  6  8  1  0
  8 11  1  0
  8  9  2  0
M  RGP  2  10   1  11   2
V   10 *
V   11 *
M  END
>  <m_name>  (33) 
D-Glutamine

>  <symbol>  (33) 
dQ

>  <m_abbr>  (33) 
dQ

>  <m_type>  (33) 
aa

>  <m_subtype>  (33) 
non-natural

>  <m_Rgroups>  (33) 
H,OH,None,None

>  <m_RgroupIdx>  (33) 
9,10,None,None

>  <m_attachmentPointIdx>  (33) 
6,7,None,None

>  <natAnalog>  (33) 
Q

>  <pdbName>  (33) 
DQC

$$$$

     RDKit          2D

 13 12  0  0  0  0  0  0  0  0999 V2000
    0.6974   -2.9487    0.0000 N   0  0  0  0  0  0  0  0  0  0  0  0
    1.2375   -3.5724    0.0000 C   0  0  0  0  0  0  0  0  0  0  0  0
    0.9675   -4.3519    0.0000 N   0  0  0  0  0  0  0  0  0  0  0  0
    2.0476   -3.4164    0.0000 N   0  0  0  0  0  0  0  0  0  0  0  0
    2.5877   -4.0401    0.0000 C   0  0  0  0  0  0  0  0  0  0  0  0
    3.3979   -3.8842    0.0000 C   0  0  0  0  0  0  0  0  0  0  0  0
    3.9379   -4.5078    0.0000 C   0  0  0  0  0  0  0  0  0  0  0  0
    4.7481   -4.3519    0.0000 C   0  0  0  0  0  0  0  0  0  0  0  0
    5.2882   -4.9755    0.0000 N   0  0  0  0  0  0  0  0  0  0  0  0
    5.0181   -3.5724    0.0000 C   0  0  0  0  0  0  0  0  0  0  0  0
    5.8283   -3.4164    0.0000 O   0  0  0  0  0  0  0  0  0  0  0  0
    6.0983   -4.8196    0.0000 R#  0  0  0  0  0  0  0  0  0  0  0  0
    4.4780   -2.9487    0.0000 R#  0  0  0  0  0  0  0  0  0  0  0  0
  1  2  1  0
  2  3  2  0
  2  4  1  0
  4  5  1  0
  5  6  1  0
  6  7  1  0
  8  7  1  6
  8  9  1  0
  9 12  1  0
  8 10  1  0
 10 13  1  0
 10 11  2  0
M  RGP  2  12   1  13   2
V   12 *
V   13 *
M  END
>  <m_name>  (34) 
D-Arginine

>  <symbol>  (34) 
dR

>  <m_abbr>  (34) 
dR

>  <m_type>  (34) 
aa

>  <m_subtype>  (34) 
non-natural

>  <m_Rgroups>  (34) 
H,OH,None,None

>  <m_RgroupIdx>  (34) 
11,12,None,None

>  <m_attachmentPointIdx>  (34) 
8,9,None,None

>  <natAnalog>  (34) 
R

>  <pdbName>  (34) 
DC9

$$$$

     RDKit          2D

  8  7  0  0  0  0  0  0  0  0999 V2000
    0.0000   -1.4289    0.0000 O   0  0  0  0  0  0  0  0  0  0  0  0
    0.8250   -1.4289    0.0000 C   0  0  0  0  0  0  0  0  0  0  0  0
    1.2375   -0.7145    0.0000 C   0  0  0  0  0  0  0  0  0  0  0  0
    2.0625   -0.7145    0.0000 N   0  0  0  0  0  0  0  0  0  0  0  0
    0.8250    0.0000    0.0000 C   0  0  0  0  0  0  0  0  0  0  0  0
    0.0000    0.0000    0.0000 O   0  0  0  0  0  0  0  0  0  0  0  0
    2.4750    0.0000    0.0000 R#  0  0  0  0  0  0  0  0  0  0  0  0
    1.2375    0.7145    0.0000 R#  0  0  0  0  0  0  0  0  0  0  0  0
  1  2  1  0
  3  2  1  6
  3  4  1  0
  4  7  1  0
  3  5  1  0
  5  8  1  0
  5  6  2  0
M  RGP  2   7   1   8   2
V    7 *
V    8 *
M  END
>  <m_name>  (35) 
D-Serine

>  <symbol>  (35) 
dS

>  <m_abbr>  (35) 
dS

>  <m_type>  (35) 
aa

>  <m_subtype>  (35) 
non-natural

>  <m_Rgroups>  (35) 
H,OH,None,None

>  <m_RgroupIdx>  (35) 
6,7,None,None

>  <m_attachmentPointIdx>  (35) 
3,4,None,None

>  <natAnalog>  (35) 
S

>  <pdbName>  (35) 
DSW

$$$$

     RDKit          2D

  9  8  0  0  0  0  0  0  0  0999 V2000
    0.0000   -1.4289    0.0000 C   0  0  0  0  0  0  0  0  0  0  0  0
    0.8250   -1.4289    0.0000 C   0  0  0  0  0  0  0  0  0  0  0  0
    1.2375   -2.1434    0.0000 O   0  0  0  0  0  0  0  0  0  0  0  0
    1.2375   -0.7145    0.0000 C   0  0  0  0  0  0  0  0  0  0  0  0
    2.0625   -0.7145    0.0000 N   0  0  0  0  0  0  0  0  0  0  0  0
    0.8250    0.0000    0.0000 C   0  0  0  0  0  0  0  0  0  0  0  0
    0.0000    0.0000    0.0000 O   0  0  0  0  0  0  0  0  0  0  0  0
    2.4750    0.0000    0.0000 R#  0  0  0  0  0  0  0  0  0  0  0  0
    1.2375    0.7145    0.0000 R#  0  0  0  0  0  0  0  0  0  0  0  0
  2  1  1  1
  2  3  1  0
  2  4  1  0
  4  5  1  6
  5  8  1  0
  4  6  1  0
  6  9  1  0
  6  7  2  0
M  RGP  2   8   1   9   2
V    8 *
V    9 *
M  END
>  <m_name>  (36) 
D-Threonine

>  <symbol>  (36) 
dT

>  <m_abbr>  (36) 
dT

>  <m_type>  (36) 
aa

>  <m_subtype>  (36) 
non-natural

>  <m_Rgroups>  (36) 
H,OH,None,None

>  <m_RgroupIdx>  (36) 
7,8,None,None

>  <m_attachmentPointIdx>  (36) 
4,5,None,None

>  <natAnalog>  (36) 
T

>  <pdbName>  (36) 
DE8

$$$$

     RDKit          2D

  9  8  0  0  0  0  0  0  0  0999 V2000
    0.0000   -1.4289    0.0000 C   0  0  0  0  0  0  0  0  0  0  0  0
    0.8250   -1.4289    0.0000 C   0  0  0  0  0  0  0  0  0  0  0  0
    1.2375   -2.1434    0.0000 C   0  0  0  0  0  0  0  0  0  0  0  0
    1.2375   -0.7145    0.0000 C   0  0  0  0  0  0  0  0  0  0  0  0
    2.0625   -0.7145    0.0000 N   0  0  0  0  0  0  0  0  0  0  0  0
    0.8250    0.0000    0.0000 C   0  0  0  0  0  0  0  0  0  0  0  0
    0.0000    0.0000    0.0000 O   0  0  0  0  0  0  0  0  0  0  0  0
    2.4750    0.0000    0.0000 R#  0  0  0  0  0  0  0  0  0  0  0  0
    1.2375    0.7145    0.0000 R#  0  0  0  0  0  0  0  0  0  0  0  0
  1  2  1  0
  2  3  1  0
  4  2  1  0
  4  5  1  6
  5  8  1  0
  4  6  1  0
  6  9  1  0
  6  7  2  0
M  RGP  2   8   1   9   2
V    8 *
V    9 *
M  END
>  <m_name>  (37) 
D-Valine

>  <symbol>  (37) 
dV

>  <m_abbr>  (37) 
dV

>  <m_type>  (37) 
aa

>  <m_subtype>  (37) 
non-natural

>  <m_Rgroups>  (37) 
H,OH,None,None

>  <m_RgroupIdx>  (37) 
7,8,None,None

>  <m_attachmentPointIdx>  (37) 
4,5,None,None

>  <natAnalog>  (37) 
V

>  <pdbName>  (37) 
DVB

$$$$

     RDKit          2D

 16 17  0  0  0  0  0  0  0  0999 V2000
   -0.1781   -3.1062    0.0000 N   0  0  0  0  0  0  0  0  0  0  0  0
    0.0768   -2.3215    0.0000 C   0  0  0  0  0  0  0  0  0  0  0  0
    0.8838   -2.1500    0.0000 C   0  0  0  0  0  0  0  0  0  0  0  0
    1.1387   -1.3654    0.0000 C   0  0  0  0  0  0  0  0  0  0  0  0
    0.6538   -0.6979    0.0000 C   0  0  0  0  0  0  0  0  0  0  0  0
    1.1387   -0.0305    0.0000 N   0  0  0  0  0  0  0  0  0  0  0  0
    1.9233   -0.2854    0.0000 C   0  0  0  0  0  0  0  0  0  0  0  0
    2.6378    0.1271    0.0000 C   0  0  0  0  0  0  0  0  0  0  0  0
    3.3523   -0.2854    0.0000 C   0  0  0  0  0  0  0  0  0  0  0  0
    3.3523   -1.1104    0.0000 C   0  0  0  0  0  0  0  0  0  0  0  0
    2.6378   -1.5229    0.0000 C   0  0  0  0  0  0  0  0  0  0  0  0
    1.9233   -1.1104    0.0000 C   0  0  0  0  0  0  0  0  0  0  0  0
   -0.4752   -1.7084    0.0000 C   0  0  0  0  0  0  0  0  0  0  0  0
   -1.2822   -1.8800    0.0000 O   0  0  0  0  0  0  0  0  0  0  0  0
   -0.9851   -3.2777    0.0000 R#  0  0  0  0  0  0  0  0  0  0  0  0
   -0.2203   -0.9238    0.0000 R#  0  0  0  0  0  0  0  0  0  0  0  0
 15  1  1  0
  2  1  1  0
  2  3  1  1
  3  4  1  0
  4  5  2  0
  5  6  1  0
  6  7  1  0
  7  8  2  0
  8  9  1  0
  9 10  2  0
 10 11  1  0
 11 12  2  0
  4 12  1  0
  7 12  1  0
  2 13  1  0
 13 16  1  0
 13 14  2  0
M  RGP  2  15   1  16   2
V   15 *
V   16 *
M  END
>  <m_name>  (38) 
D-Tryptophan

>  <symbol>  (38) 
dW

>  <m_abbr>  (38) 
dW

>  <m_type>  (38) 
aa

>  <m_subtype>  (38) 
non-natural

>  <m_Rgroups>  (38) 
H,OH,None,None

>  <m_RgroupIdx>  (38) 
14,15,None,None

>  <m_attachmentPointIdx>  (38) 
0,12,None,None

>  <natAnalog>  (38) 
W

>  <pdbName>  (38) 
DWI

$$$$

     RDKit          2D

 14 14  0  0  0  0  0  0  0  0999 V2000
    0.7145    2.0625    0.0000 O   0  0  0  0  0  0  0  0  0  0  0  0
    0.7145    1.2375    0.0000 C   0  0  0  0  0  0  0  0  0  0  0  0
    1.4289    0.8250    0.0000 C   0  0  0  0  0  0  0  0  0  0  0  0
    1.4289    0.0000    0.0000 C   0  0  0  0  0  0  0  0  0  0  0  0
    0.7145   -0.4125    0.0000 C   0  0  0  0  0  0  0  0  0  0  0  0
    0.7145   -1.2375    0.0000 C   0  0  0  0  0  0  0  0  0  0  0  0
    1.4289   -1.6500    0.0000 C   0  0  0  0  0  0  0  0  0  0  0  0
    1.4289   -2.4750    0.0000 N   0  0  0  0  0  0  0  0  0  0  0  0
    2.1434   -1.2375    0.0000 C   0  0  0  0  0  0  0  0  0  0  0  0
    2.1434   -0.4125    0.0000 O   0  0  0  0  0  0  0  0  0  0  0  0
    0.0000    0.0000    0.0000 C   0  0  0  0  0  0  0  0  0  0  0  0
    0.0000    0.8250    0.0000 C   0  0  0  0  0  0  0  0  0  0  0  0
    2.1434   -2.8875    0.0000 R#  0  0  0  0  0  0  0  0  0  0  0  0
    2.8579   -1.6500    0.0000 R#  0  0  0  0  0  0  0  0  0  0  0  0
  1  2  1  0
  2  3  2  0
  3  4  1  0
  4  5  2  0
  5  6  1  0
  7  6  1  6
  7  8  1  0
  8 13  1  0
  7  9  1  0
  9 14  1  0
  9 10  2  0
  5 11  1  0
 11 12  2  0
  2 12  1  0
M  RGP  2  13   1  14   2
V   13 *
V   14 *
M  END
>  <m_name>  (39) 
D-Tyrosine

>  <symbol>  (39) 
dY

>  <m_abbr>  (39) 
dY

>  <m_type>  (39) 
aa

>  <m_subtype>  (39) 
non-natural

>  <m_Rgroups>  (39) 
H,OH,None,None

>  <m_RgroupIdx>  (39) 
12,13,None,None

>  <m_attachmentPointIdx>  (39) 
7,8,None,None

>  <natAnalog>  (39) 
Y

>  <pdbName>  (39) 
DYE

$$$$

     RDKit          2D

  4  3  0  0  0  0  0  0  0  0999 V2000
    1.2375    0.7145    0.0000 C   0  0  0  0  0  0  0  0  0  0  0  0
    0.8250    0.0000    0.0000 C   0  0  0  0  0  0  0  0  0  0  0  0
    0.0000    0.0000    0.0000 O   0  0  0  0  0  0  0  0  0  0  0  0
    1.2375   -0.7145    0.0000 R#  0  0  0  0  0  0  0  0  0  0  0  0
  1  2  1  0
  2  4  1  0
  2  3  2  0
M  RGP  1   4   2
V    4 *
M  END
>  <m_name>  (40) 
N-Terminal acetic acid

>  <symbol>  (40) 
ac

>  <m_abbr>  (40) 
ac

>  <m_type>  (40) 
cap

>  <m_subtype>  (40) 
cap

>  <m_Rgroups>  (40) 
None,OH,None,None

>  <m_RgroupIdx>  (40) 
None,3,None,None

>  <m_attachmentPointIdx>  (40) 
None,1,None,None

>  <natAnalog>  (40) 
X

>  <pdbName>  (40) 
ACE

$$$$

     RDKit          2D

  2  1  0  0  0  0  0  0  0  0999 V2000
    0.8250    0.0000    0.0000 N   0  0  0  0  0  0  0  0  0  0  0  0
    0.0000    0.0000    0.0000 R#  0  0  0  0  0  0  0  0  0  0  0  0
  1  2  1  0
M  RGP  1   2   1
V    2 *
M  END
>  <m_name>  (41) 
C-Terminal amine

>  <symbol>  (41) 
am

>  <m_abbr>  (41) 
am

>  <m_type>  (41) 
cap

>  <m_subtype>  (41) 
cap

>  <m_Rgroups>  (41) 
H,None,None,None

>  <m_RgroupIdx>  (41) 
1,None,None,None

>  <m_attachmentPointIdx>  (41) 
0,None,None,None

>  <natAnalog>  (41) 
X

>  <pdbName>  (41) 
NH2

$$$$

     RDKit          2D

  2  1  0  0  0  0  0  0  0  0999 V2000
    0.8250    0.0000    0.0000 C   0  0  0  0  0  0  0  0  0  0  0  0
    0.0000    0.0000    0.0000 R#  0  0  0  0  0  0  0  0  0  0  0  0
  1  2  1  0
M  RGP  1   2   1
V    2 *
M  END
>  <m_name>  (42) 
C-Terminal methyl

>  <symbol>  (42) 
_Me

>  <m_abbr>  (42) 
_Me

>  <m_type>  (42) 
cap

>  <m_subtype>  (42) 
cap

>  <m_Rgroups>  (42) 
H,None,None,None

>  <m_RgroupIdx>  (42) 
1,None,None,None

>  <m_attachmentPointIdx>  (42) 
0,None,None,None

>  <natAnalog>  (42) 
X

>  <pdbName>  (42) 
MEH

$$$$

     RDKit          2D

  8  7  0  0  0  0  0  0  0  0999 V2000
    2.0625    0.7145    0.0000 C   0  0  0  0  0  0  0  0  0  0  0  0
    1.2375    0.7145    0.0000 C   0  0  0  0  0  0  0  0  0  0  0  0
    0.8250    1.4289    0.0000 N   0  0  0  0  0  0  0  0  0  0  0  0
    1.2375    2.1434    0.0000 C   0  0  0  0  0  0  0  0  0  0  0  0
    0.8250    0.0000    0.0000 C   0  0  0  0  0  0  0  0  0  0  0  0
    0.0000    0.0000    0.0000 O   0  0  0  0  0  0  0  0  0  0  0  0
    0.0000    1.4289    0.0000 R#  0  0  0  0  0  0  0  0  0  0  0  0
    1.2375   -0.7145    0.0000 R#  0  0  0  0  0  0  0  0  0  0  0  0
  2  1  1  1
  2  3  1  0
  3  4  1  0
  3  7  1  0
  2  5  1  0
  5  8  1  0
  5  6  2  0
M  RGP  2   7   1   8   2
V    7 *
V    8 *
M  END
>  <m_name>  (43) 
N-Methyl-Alanine

>  <symbol>  (43) 
meA

>  <m_abbr>  (43) 
meA

>  <m_type>  (43) 
aa

>  <m_subtype>  (43) 
non-natural

>  <m_Rgroups>  (43) 
H,OH,None,None

>  <m_RgroupIdx>  (43) 
6,7,None,None

>  <m_attachmentPointIdx>  (43) 
2,4,None,None

>  <natAnalog>  (43) 
A

>  <pdbName>  (43) 
MBI

$$$$

     RDKit          2D

 11 10  0  0  0  0  0  0  0  0999 V2000
    2.6664   -2.3645    0.0000 C   0  0  0  0  0  0  0  0  0  0  0  0
    1.9520   -1.9520    0.0000 N   0  0  0  0  0  0  0  0  0  0  0  0
    1.9520   -1.1270    0.0000 C   0  0  0  0  0  0  0  0  0  0  0  0
    1.2375   -0.7145    0.0000 C   0  0  0  0  0  0  0  0  0  0  0  0
    1.2375    0.1105    0.0000 C   0  0  0  0  0  0  0  0  0  0  0  0
    1.9520    0.5230    0.0000 O   0  0  0  0  0  0  0  0  0  0  0  0
    2.6664   -0.7145    0.0000 C   0  0  0  0  0  0  0  0  0  0  0  0
    3.3809   -1.1270    0.0000 O   0  0  0  0  0  0  0  0  0  0  0  0
    1.2375   -2.3645    0.0000 R#  0  0  0  0  0  0  0  0  0  0  0  0
    0.5230    0.5230    0.0000 R#  0  0  0  0  0  0  0  0  0  0  0  0
    2.6664    0.1105    0.0000 R#  0  0  0  0  0  0  0  0  0  0  0  0
  1  2  1  0
  2  9  1  0
  3  2  1  0
  3  4  1  1
  4  5  1  0
  5 10  1  0
  5  6  2  0
  3  7  1  0
  7 11  1  0
  7  8  2  0
M  RGP  3   9   1  10   3  11   2
V    9 *
V   10 *
V   11 *
M  END
>  <m_name>  (44) 
N-Methyl-Aspartic acid

>  <symbol>  (44) 
meD

>  <m_abbr>  (44) 
meD

>  <m_type>  (44) 
aa

>  <m_subtype>  (44) 
non-natural

>  <m_Rgroups>  (44) 
H,OH,OH,None

>  <m_RgroupIdx>  (44) 
8,10,9,None

>  <m_attachmentPointIdx>  (44) 
1,6,4,None

>  <natAnalog>  (44) 
D

>  <pdbName>  (44) 
MBJ

$$$$

     RDKit          2D

  9  8  0  0  0  0  0  0  0  0999 V2000
    0.0000   -1.4289    0.0000 C   0  0  0  0  0  0  0  0  0  0  0  0
    0.8250   -1.4289    0.0000 N   0  0  0  0  0  0  0  0  0  0  0  0
    1.2375   -0.7145    0.0000 C   0  0  0  0  0  0  0  0  0  0  0  0
    2.0625   -0.7145    0.0000 C   0  0  0  0  0  0  0  0  0  0  0  0
    2.4750    0.0000    0.0000 O   0  0  0  0  0  0  0  0  0  0  0  0
    0.8250    0.0000    0.0000 C   0  0  0  0  0  0  0  0  0  0  0  0
    0.0000    0.0000    0.0000 O   0  0  0  0  0  0  0  0  0  0  0  0
    1.2375   -2.1434    0.0000 R#  0  0  0  0  0  0  0  0  0  0  0  0
    1.2375    0.7145    0.0000 R#  0  0  0  0  0  0  0  0  0  0  0  0
  1  2  1  0
  2  8  1  0
  3  2  1  0
  3  4  1  6
  4  5  1  0
  3  6  1  0
  6  9  1  0
  6  7  2  0
M  RGP  2   8   1   9   2
V    8 *
V    9 *
M  END
>  <m_name>  (45) 
N-Methyl-Serine

>  <symbol>  (45) 
meS

>  <m_abbr>  (45) 
meS

>  <m_type>  (45) 
aa

>  <m_subtype>  (45) 
non-natural

>  <m_Rgroups>  (45) 
H,OH,None,None

>  <m_RgroupIdx>  (45) 
7,8,None,None

>  <m_attachmentPointIdx>  (45) 
1,5,None,None

>  <natAnalog>  (45) 
S

>  <pdbName>  (45) 
MBU

$$$$

     RDKit          2D

 10  9  0  0  0  0  0  0  0  0999 V2000
    0.0000   -1.4289    0.0000 C   0  0  0  0  0  0  0  0  0  0  0  0
    0.8250   -1.4289    0.0000 C   0  0  0  0  0  0  0  0  0  0  0  0
    1.2375   -2.1434    0.0000 O   0  0  0  0  0  0  0  0  0  0  0  0
    1.2375   -0.7145    0.0000 C   0  0  0  0  0  0  0  0  0  0  0  0
    2.0625   -0.7145    0.0000 N   0  0  0  0  0  0  0  0  0  0  0  0
    2.4750    0.0000    0.0000 C   0  0  0  0  0  0  0  0  0  0  0  0
    0.8250    0.0000    0.0000 C   0  0  0  0  0  0  0  0  0  0  0  0
    0.0000    0.0000    0.0000 O   0  0  0  0  0  0  0  0  0  0  0  0
    2.4750   -1.4289    0.0000 R#  0  0  0  0  0  0  0  0  0  0  0  0
    1.2375    0.7145    0.0000 R#  0  0  0  0  0  0  0  0  0  0  0  0
  2  1  1  6
  2  3  1  0
  2  4  1  0
  4  5  1  1
  5  6  1  0
  5  9  1  0
  4  7  1  0
  7 10  1  0
  7  8  2  0
M  RGP  2   9   1  10   2
V    9 *
V   10 *
M  END
>  <m_name>  (46) 
N-Methyl-Threonine

>  <symbol>  (46) 
meT

>  <m_abbr>  (46) 
meT

>  <m_type>  (46) 
aa

>  <m_subtype>  (46) 
non-natural

>  <m_Rgroups>  (46) 
H,OH,None,None

>  <m_RgroupIdx>  (46) 
8,9,None,None

>  <m_attachmentPointIdx>  (46) 
4,6,None,None

>  <natAnalog>  (46) 
T

>  <pdbName>  (46) 
MCC

$$$$

     RDKit          2D

 10  9  0  0  0  0  0  0  0  0999 V2000
    0.0000   -1.4289    0.0000 C   0  0  0  0  0  0  0  0  0  0  0  0
    0.8250   -1.4289    0.0000 C   0  0  0  0  0  0  0  0  0  0  0  0
    1.2375   -2.1434    0.0000 C   0  0  0  0  0  0  0  0  0  0  0  0
    1.2375   -0.7145    0.0000 C   0  0  0  0  0  0  0  0  0  0  0  0
    2.0625   -0.7145    0.0000 N   0  0  0  0  0  0  0  0  0  0  0  0
    2.4750    0.0000    0.0000 C   0  0  0  0  0  0  0  0  0  0  0  0
    0.8250    0.0000    0.0000 C   0  0  0  0  0  0  0  0  0  0  0  0
    0.0000    0.0000    0.0000 O   0  0  0  0  0  0  0  0  0  0  0  0
    2.4750   -1.4289    0.0000 R#  0  0  0  0  0  0  0  0  0  0  0  0
    1.2375    0.7145    0.0000 R#  0  0  0  0  0  0  0  0  0  0  0  0
  1  2  1  0
  2  3  1  0
  4  2  1  1
  4  5  1  0
  5  6  1  0
  5  9  1  0
  4  7  1  0
  7 10  1  0
  7  8  2  0
M  RGP  2   9   1  10   2
V    9 *
V   10 *
M  END
>  <m_name>  (47) 
N-Methyl-Valine

>  <symbol>  (47) 
meV

>  <m_abbr>  (47) 
meV

>  <m_type>  (47) 
aa

>  <m_subtype>  (47) 
non-natural

>  <m_Rgroups>  (47) 
H,OH,None,None

>  <m_RgroupIdx>  (47) 
8,9,None,None

>  <m_attachmentPointIdx>  (47) 
4,6,None,None

>  <natAnalog>  (47) 
V

>  <pdbName>  (47) 
MC6

$$$$

     RDKit          2D

 15 15  0  0  0  0  0  0  0  0999 V2000
   -0.7145    3.7125    0.0000 C   0  0  0  0  0  0  0  0  0  0  0  0
    0.0000    3.3000    0.0000 N   0  0  0  0  0  0  0  0  0  0  0  0
    0.0000    2.4750    0.0000 C   0  0  0  0  0  0  0  0  0  0  0  0
    0.7145    2.0625    0.0000 C   0  0  0  0  0  0  0  0  0  0  0  0
    0.7145    1.2375    0.0000 C   0  0  0  0  0  0  0  0  0  0  0  0
    1.4289    0.8250    0.0000 C   0  0  0  0  0  0  0  0  0  0  0  0
    1.4289    0.0000    0.0000 C   0  0  0  0  0  0  0  0  0  0  0  0
    0.7145   -0.4125    0.0000 C   0  0  0  0  0  0  0  0  0  0  0  0
    0.7145   -1.2375    0.0000 O   0  0  0  0  0  0  0  0  0  0  0  0
    0.0000    0.0000    0.0000 C   0  0  0  0  0  0  0  0  0  0  0  0
    0.0000    0.8250    0.0000 C   0  0  0  0  0  0  0  0  0  0  0  0
   -0.7145    2.0625    0.0000 C   0  0  0  0  0  0  0  0  0  0  0  0
   -1.4289    2.4750    0.0000 O   0  0  0  0  0  0  0  0  0  0  0  0
    0.7145    3.7125    0.0000 R#  0  0  0  0  0  0  0  0  0  0  0  0
   -0.7145    1.2375    0.0000 R#  0  0  0  0  0  0  0  0  0  0  0  0
  1  2  1  0
  2 14  1  0
  3  2  1  0
  3  4  1  1
  4  5  1  0
  5  6  2  0
  6  7  1  0
  7  8  2  0
  8  9  1  0
  8 10  1  0
 10 11  2  0
  5 11  1  0
  3 12  1  0
 12 15  1  0
 12 13  2  0
M  RGP  2  14   1  15   2
V   14 *
V   15 *
M  END
>  <m_name>  (48) 
N-Methyl-Tyrosine

>  <symbol>  (48) 
meY

>  <m_abbr>  (48) 
meY

>  <m_type>  (48) 
aa

>  <m_subtype>  (48) 
non-natural

>  <m_Rgroups>  (48) 
H,OH,None,None

>  <m_RgroupIdx>  (48) 
13,14,None,None

>  <m_attachmentPointIdx>  (48) 
1,11,None,None

>  <natAnalog>  (48) 
Y

>  <pdbName>  (48) 
MC7

$$$$

     RDKit          2D

 12 11  0  0  0  0  0  0  0  0999 V2000
    4.5375    3.5724    0.0000 C   0  0  0  0  0  0  0  0  0  0  0  0
    3.7125    3.5724    0.0000 N   0  0  0  0  0  0  0  0  0  0  0  0
    3.3000    2.8579    0.0000 C   0  0  0  0  0  0  0  0  0  0  0  0
    2.4750    2.8579    0.0000 C   0  0  0  0  0  0  0  0  0  0  0  0
    2.0625    2.1434    0.0000 C   0  0  0  0  0  0  0  0  0  0  0  0
    1.2375    2.1434    0.0000 C   0  0  0  0  0  0  0  0  0  0  0  0
    0.8250    2.8579    0.0000 O   0  0  0  0  0  0  0  0  0  0  0  0
    3.7125    2.1434    0.0000 C   0  0  0  0  0  0  0  0  0  0  0  0
    3.3000    1.4289    0.0000 O   0  0  0  0  0  0  0  0  0  0  0  0
    3.3000    4.2868    0.0000 R#  0  0  0  0  0  0  0  0  0  0  0  0
    0.8250    1.4289    0.0000 R#  0  0  0  0  0  0  0  0  0  0  0  0
    4.5375    2.1434    0.0000 R#  0  0  0  0  0  0  0  0  0  0  0  0
  1  2  1  0
  2 10  1  0
  3  2  1  0
  3  4  1  6
  4  5  1  0
  5  6  1  0
  6 11  1  0
  6  7  2  0
  3  8  1  0
  8 12  1  0
  8  9  2  0
M  RGP  3  10   1  11   3  12   2
V   10 *
V   11 *
V   12 *
M  END
>  <m_name>  (49) 
N-Methyl-Glutamic acid

>  <symbol>  (49) 
meE

>  <m_abbr>  (49) 
meE

>  <m_type>  (49) 
aa

>  <m_subtype>  (49) 
non-natural

>  <m_Rgroups>  (49) 
H,OH,OH,None

>  <m_RgroupIdx>  (49) 
9,11,10,None

>  <m_attachmentPointIdx>  (49) 
1,7,5,None

>  <natAnalog>  (49) 
E

>  <pdbName>  (49) 
MDI

$$$$

     RDKit          2D

  7  6  0  0  0  0  0  0  0  0999 V2000
    1.2375    2.1434    0.0000 C   0  0  0  0  0  0  0  0  0  0  0  0
    0.8250    1.4289    0.0000 N   0  0  0  0  0  0  0  0  0  0  0  0
    1.2375    0.7145    0.0000 C   0  0  0  0  0  0  0  0  0  0  0  0
    0.8250    0.0000    0.0000 C   0  0  0  0  0  0  0  0  0  0  0  0
    0.0000    0.0000    0.0000 O   0  0  0  0  0  0  0  0  0  0  0  0
    0.0000    1.4289    0.0000 R#  0  0  0  0  0  0  0  0  0  0  0  0
    1.2375   -0.7145    0.0000 R#  0  0  0  0  0  0  0  0  0  0  0  0
  1  2  1  0
  2  6  1  0
  2  3  1  0
  3  4  1  0
  4  7  1  0
  4  5  2  0
M  RGP  2   6   1   7   2
V    6 *
V    7 *
M  END
>  <m_name>  (50) 
Sarcosine (N-Methyl-Glycine)

>  <symbol>  (50) 
meG

>  <m_abbr>  (50) 
meG

>  <m_type>  (50) 
aa

>  <m_subtype>  (50) 
non-natural

>  <m_Rgroups>  (50) 
H,OH,None,None

>  <m_RgroupIdx>  (50) 
5,6,None,None

>  <m_attachmentPointIdx>  (50) 
1,3,None,None

>  <natAnalog>  (50) 
G

>  <pdbName>  (50) 
MDM

$$$$

     RDKit          2D

 11 10  0  0  0  0  0  0  0  0999 V2000
    0.5230    0.5230    0.0000 C   0  0  0  0  0  0  0  0  0  0  0  0
    1.2375    0.1105    0.0000 C   0  0  0  0  0  0  0  0  0  0  0  0
    1.2375   -0.7145    0.0000 C   0  0  0  0  0  0  0  0  0  0  0  0
    0.5230   -1.1270    0.0000 C   0  0  0  0  0  0  0  0  0  0  0  0
    1.9520   -1.1270    0.0000 C   0  0  0  0  0  0  0  0  0  0  0  0
    1.9520   -1.9520    0.0000 N   0  0  0  0  0  0  0  0  0  0  0  0
    2.6664   -2.3645    0.0000 C   0  0  0  0  0  0  0  0  0  0  0  0
    2.6664   -0.7145    0.0000 C   0  0  0  0  0  0  0  0  0  0  0  0
    3.3809   -1.1270    0.0000 O   0  0  0  0  0  0  0  0  0  0  0  0
    1.2375   -2.3645    0.0000 R#  0  0  0  0  0  0  0  0  0  0  0  0
    2.6664    0.1105    0.0000 R#  0  0  0  0  0  0  0  0  0  0  0  0
  1  2  1  0
  3  2  1  0
  3  4  1  1
  3  5  1  0
  5  6  1  1
  6  7  1  0
  6 10  1  0
  5  8  1  0
  8 11  1  0
  8  9  2  0
M  RGP  2  10   1  11   2
V   10 *
V   11 *
M  END
>  <m_name>  (51) 
N-Methyl-Isoleucine

>  <symbol>  (51) 
meI

>  <m_abbr>  (51) 
meI

>  <m_type>  (51) 
aa

>  <m_subtype>  (51) 
non-natural

>  <m_Rgroups>  (51) 
H,OH,None,None

>  <m_RgroupIdx>  (51) 
9,10,None,None

>  <m_attachmentPointIdx>  (51) 
5,7,None,None

>  <natAnalog>  (51) 
I

>  <pdbName>  (51) 
MDT

$$$$

     RDKit          2D

 13 12  0  0  0  0  0  0  0  0999 V2000
    6.0983    4.8196    0.0000 C   0  0  0  0  0  0  0  0  0  0  0  0
    5.2882    4.9755    0.0000 N   0  0  0  0  0  0  0  0  0  0  0  0
    4.7481    4.3519    0.0000 C   0  0  0  0  0  0  0  0  0  0  0  0
    3.9379    4.5078    0.0000 C   0  0  0  0  0  0  0  0  0  0  0  0
    3.3979    3.8842    0.0000 C   0  0  0  0  0  0  0  0  0  0  0  0
    2.5877    4.0401    0.0000 C   0  0  0  0  0  0  0  0  0  0  0  0
    2.0476    3.4164    0.0000 C   0  0  0  0  0  0  0  0  0  0  0  0
    1.2375    3.5724    0.0000 N   0  0  0  0  0  0  0  0  0  0  0  0
    5.0181    3.5724    0.0000 C   0  0  0  0  0  0  0  0  0  0  0  0
    4.4780    2.9487    0.0000 O   0  0  0  0  0  0  0  0  0  0  0  0
    5.0181    5.7551    0.0000 R#  0  0  0  0  0  0  0  0  0  0  0  0
    0.6974    2.9487    0.0000 R#  0  0  0  0  0  0  0  0  0  0  0  0
    5.8283    3.4164    0.0000 R#  0  0  0  0  0  0  0  0  0  0  0  0
  1  2  1  0
  2 11  1  0
  3  2  1  0
  3  4  1  6
  4  5  1  0
  5  6  1  0
  6  7  1  0
  7  8  1  0
  8 12  1  0
  3  9  1  0
  9 13  1  0
  9 10  2  0
M  RGP  3  11   1  12   3  13   2
V   11 *
V   12 *
V   13 *
M  END
>  <m_name>  (52) 
N-Methyl-Lysine

>  <symbol>  (52) 
meK

>  <m_abbr>  (52) 
meK

>  <m_type>  (52) 
aa

>  <m_subtype>  (52) 
non-natural

>  <m_Rgroups>  (52) 
H,OH,H,None

>  <m_RgroupIdx>  (52) 
10,12,11,None

>  <m_attachmentPointIdx>  (52) 
1,8,7,None

>  <natAnalog>  (52) 
K

>  <pdbName>  (52) 
MFF

$$$$

     RDKit          2D

 11 10  0  0  0  0  0  0  0  0999 V2000
    0.8250   -1.4289    0.0000 C   0  0  0  0  0  0  0  0  0  0  0  0
    1.2375   -2.1434    0.0000 S   0  0  0  0  0  0  0  0  0  0  0  0
    2.0625   -2.1434    0.0000 C   0  0  0  0  0  0  0  0  0  0  0  0
    2.4750   -2.8579    0.0000 C   0  0  0  0  0  0  0  0  0  0  0  0
    3.3000   -2.8579    0.0000 C   0  0  0  0  0  0  0  0  0  0  0  0
    3.7125   -3.5724    0.0000 N   0  0  0  0  0  0  0  0  0  0  0  0
    4.5375   -3.5724    0.0000 C   0  0  0  0  0  0  0  0  0  0  0  0
    3.7125   -2.1434    0.0000 C   0  0  0  0  0  0  0  0  0  0  0  0
    4.5375   -2.1434    0.0000 O   0  0  0  0  0  0  0  0  0  0  0  0
    3.3000   -4.2868    0.0000 R#  0  0  0  0  0  0  0  0  0  0  0  0
    3.3000   -1.4289    0.0000 R#  0  0  0  0  0  0  0  0  0  0  0  0
  1  2  1  0
  2  3  1  0
  3  4  1  0
  5  4  1  1
  5  6  1  0
  6  7  1  0
  6 10  1  0
  5  8  1  0
  8 11  1  0
  8  9  2  0
M  RGP  2  10   1  11   2
V   10 *
V   11 *
M  END
>  <m_name>  (53) 
N-Methyl-Methionine

>  <symbol>  (53) 
meM

>  <m_abbr>  (53) 
meM

>  <m_type>  (53) 
aa

>  <m_subtype>  (53) 
non-natural

>  <m_Rgroups>  (53) 
H,OH,None,None

>  <m_RgroupIdx>  (53) 
9,10,None,None

>  <m_attachmentPointIdx>  (53) 
5,7,None,None

>  <natAnalog>  (53) 
M

>  <pdbName>  (53) 
MFI

$$$$

     RDKit          2D

 11 10  0  0  0  0  0  0  0  0999 V2000
    2.6664   -2.3645    0.0000 C   0  0  0  0  0  0  0  0  0  0  0  0
    1.9520   -1.9520    0.0000 N   0  0  0  0  0  0  0  0  0  0  0  0
    1.9520   -1.1270    0.0000 C   0  0  0  0  0  0  0  0  0  0  0  0
    1.2375   -0.7145    0.0000 C   0  0  0  0  0  0  0  0  0  0  0  0
    1.2375    0.1105    0.0000 C   0  0  0  0  0  0  0  0  0  0  0  0
    0.5230    0.5230    0.0000 N   0  0  0  0  0  0  0  0  0  0  0  0
    1.9520    0.5230    0.0000 O   0  0  0  0  0  0  0  0  0  0  0  0
    2.6664   -0.7145    0.0000 C   0  0  0  0  0  0  0  0  0  0  0  0
    3.3809   -1.1270    0.0000 O   0  0  0  0  0  0  0  0  0  0  0  0
    1.2375   -2.3645    0.0000 R#  0  0  0  0  0  0  0  0  0  0  0  0
    2.6664    0.1105    0.0000 R#  0  0  0  0  0  0  0  0  0  0  0  0
  1  2  1  0
  2 10  1  0
  3  2  1  0
  3  4  1  1
  4  5  1  0
  5  6  1  0
  5  7  2  0
  3  8  1  0
  8 11  1  0
  8  9  2  0
M  RGP  2  10   1  11   2
V   10 *
V   11 *
M  END
>  <m_name>  (54) 
N-Methyl-Asparagine

>  <symbol>  (54) 
meN

>  <m_abbr>  (54) 
meN

>  <m_type>  (54) 
aa

>  <m_subtype>  (54) 
non-natural

>  <m_Rgroups>  (54) 
H,OH,None,None

>  <m_RgroupIdx>  (54) 
9,10,None,None

>  <m_attachmentPointIdx>  (54) 
1,7,None,None

>  <natAnalog>  (54) 
N

>  <pdbName>  (54) 
MFL

$$$$

     RDKit          2D

 12 11  0  0  0  0  0  0  0  0999 V2000
    4.5375    3.5724    0.0000 C   0  0  0  0  0  0  0  0  0  0  0  0
    3.7125    3.5724    0.0000 N   0  0  0  0  0  0  0  0  0  0  0  0
    3.3000    2.8579    0.0000 C   0  0  0  0  0  0  0  0  0  0  0  0
    2.4750    2.8579    0.0000 C   0  0  0  0  0  0  0  0  0  0  0  0
    2.0625    2.1434    0.0000 C   0  0  0  0  0  0  0  0  0  0  0  0
    1.2375    2.1434    0.0000 C   0  0  0  0  0  0  0  0  0  0  0  0
    0.8250    1.4289    0.0000 N   0  0  0  0  0  0  0  0  0  0  0  0
    0.8250    2.8579    0.0000 O   0  0  0  0  0  0  0  0  0  0  0  0
    3.7125    2.1434    0.0000 C   0  0  0  0  0  0  0  0  0  0  0  0
    3.3000    1.4289    0.0000 O   0  0  0  0  0  0  0  0  0  0  0  0
    3.3000    4.2868    0.0000 R#  0  0  0  0  0  0  0  0  0  0  0  0
    4.5375    2.1434    0.0000 R#  0  0  0  0  0  0  0  0  0  0  0  0
  1  2  1  0
  2 11  1  0
  3  2  1  0
  3  4  1  6
  4  5  1  0
  5  6  1  0
  6  7  1  0
  6  8  2  0
  3  9  1  0
  9 12  1  0
  9 10  2  0
M  RGP  2  11   1  12   2
V   11 *
V   12 *
M  END
>  <m_name>  (55) 
N-Methyl-Glutamine

>  <symbol>  (55) 
meQ

>  <m_abbr>  (55) 
meQ

>  <m_type>  (55) 
aa

>  <m_subtype>  (55) 
non-natural

>  <m_Rgroups>  (55) 
H,OH,None,None

>  <m_RgroupIdx>  (55) 
10,11,None,None

>  <m_attachmentPointIdx>  (55) 
1,8,None,None

>  <natAnalog>  (55) 
Q

>  <pdbName>  (55) 
MFS

$$$$

     RDKit          2D

 10  9  0  0  0  0  0  0  0  0999 V2000
    2.6664   -2.3645    0.0000 C   0  0  0  0  0  0  0  0  0  0  0  0
    1.9520   -1.9520    0.0000 N   0  0  0  0  0  0  0  0  0  0  0  0
    1.9520   -1.1270    0.0000 C   0  0  0  0  0  0  0  0  0  0  0  0
    1.2375   -0.7145    0.0000 C   0  0  0  0  0  0  0  0  0  0  0  0
    1.2375    0.1105    0.0000 S   0  0  0  0  0  0  0  0  0  0  0  0
    2.6664   -0.7145    0.0000 C   0  0  0  0  0  0  0  0  0  0  0  0
    3.3809   -1.1270    0.0000 O   0  0  0  0  0  0  0  0  0  0  0  0
    1.2375   -2.3645    0.0000 R#  0  0  0  0  0  0  0  0  0  0  0  0
    0.5230    0.5230    0.0000 R#  0  0  0  0  0  0  0  0  0  0  0  0
    2.6664    0.1105    0.0000 R#  0  0  0  0  0  0  0  0  0  0  0  0
  1  2  1  0
  2  8  1  0
  3  2  1  0
  3  4  1  1
  4  5  1  0
  5  9  1  0
  3  6  1  0
  6 10  1  0
  6  7  2  0
M  RGP  3   8   1   9   3  10   2
V    8 *
V    9 *
V   10 *
M  END
>  <m_name>  (56) 
N-Methyl-Cysteine

>  <symbol>  (56) 
meC

>  <m_abbr>  (56) 
meC

>  <m_type>  (56) 
aa

>  <m_subtype>  (56) 
non-natural

>  <m_Rgroups>  (56) 
H,OH,H,None

>  <m_RgroupIdx>  (56) 
7,9,8,None

>  <m_attachmentPointIdx>  (56) 
1,5,4,None

>  <natAnalog>  (56) 
C

>  <pdbName>  (56) 
MF0

$$$$

     RDKit          2D

 14 13  0  0  0  0  0  0  0  0999 V2000
    6.0983    4.8196    0.0000 C   0  0  0  0  0  0  0  0  0  0  0  0
    5.2882    4.9755    0.0000 N   0  0  0  0  0  0  0  0  0  0  0  0
    4.7481    4.3519    0.0000 C   0  0  0  0  0  0  0  0  0  0  0  0
    3.9379    4.5078    0.0000 C   0  0  0  0  0  0  0  0  0  0  0  0
    3.3979    3.8842    0.0000 C   0  0  0  0  0  0  0  0  0  0  0  0
    2.5877    4.0401    0.0000 C   0  0  0  0  0  0  0  0  0  0  0  0
    2.0476    3.4164    0.0000 N   0  0  0  0  0  0  0  0  0  0  0  0
    1.2375    3.5724    0.0000 C   0  0  0  0  0  0  0  0  0  0  0  0
    0.6974    2.9487    0.0000 N   0  0  0  0  0  0  0  0  0  0  0  0
    0.9675    4.3519    0.0000 N   0  0  0  0  0  0  0  0  0  0  0  0
    5.0181    3.5724    0.0000 C   0  0  0  0  0  0  0  0  0  0  0  0
    4.4780    2.9487    0.0000 O   0  0  0  0  0  0  0  0  0  0  0  0
    5.0181    5.7551    0.0000 R#  0  0  0  0  0  0  0  0  0  0  0  0
    5.8283    3.4164    0.0000 R#  0  0  0  0  0  0  0  0  0  0  0  0
  1  2  1  0
  2 13  1  0
  3  2  1  0
  3  4  1  6
  4  5  1  0
  5  6  1  0
  6  7  1  0
  7  8  1  0
  8  9  1  0
  8 10  2  0
  3 11  1  0
 11 14  1  0
 11 12  2  0
M  RGP  2  13   1  14   2
V   13 *
V   14 *
M  END
>  <m_name>  (57) 
N-Methyl-Arginine

>  <symbol>  (57) 
meR

>  <m_abbr>  (57) 
meR

>  <m_type>  (57) 
aa

>  <m_subtype>  (57) 
non-natural

>  <m_Rgroups>  (57) 
H,OH,None,None

>  <m_RgroupIdx>  (57) 
12,13,None,None

>  <m_attachmentPointIdx>  (57) 
1,10,None,None

>  <natAnalog>  (57) 
R

>  <pdbName>  (57) 
MF6

$$$$

     RDKit          2D

 17 18  0  0  0  0  0  0  0  0999 V2000
   -0.9851   -3.2777    0.0000 C   0  0  0  0  0  0  0  0  0  0  0  0
   -0.1781   -3.1062    0.0000 N   0  0  0  0  0  0  0  0  0  0  0  0
    0.0768   -2.3215    0.0000 C   0  0  0  0  0  0  0  0  0  0  0  0
    0.8838   -2.1500    0.0000 C   0  0  0  0  0  0  0  0  0  0  0  0
    1.1387   -1.3654    0.0000 C   0  0  0  0  0  0  0  0  0  0  0  0
    0.6538   -0.6979    0.0000 C   0  0  0  0  0  0  0  0  0  0  0  0
    1.1387   -0.0305    0.0000 N   0  0  0  0  0  0  0  0  0  0  0  0
    1.9233   -0.2854    0.0000 C   0  0  0  0  0  0  0  0  0  0  0  0
    2.6378    0.1271    0.0000 C   0  0  0  0  0  0  0  0  0  0  0  0
    3.3523   -0.2854    0.0000 C   0  0  0  0  0  0  0  0  0  0  0  0
    3.3523   -1.1104    0.0000 C   0  0  0  0  0  0  0  0  0  0  0  0
    2.6378   -1.5229    0.0000 C   0  0  0  0  0  0  0  0  0  0  0  0
    1.9233   -1.1104    0.0000 C   0  0  0  0  0  0  0  0  0  0  0  0
   -0.4752   -1.7084    0.0000 C   0  0  0  0  0  0  0  0  0  0  0  0
   -1.2822   -1.8800    0.0000 O   0  0  0  0  0  0  0  0  0  0  0  0
    0.3739   -3.7192    0.0000 R#  0  0  0  0  0  0  0  0  0  0  0  0
   -0.2203   -0.9238    0.0000 R#  0  0  0  0  0  0  0  0  0  0  0  0
  1  2  1  0
  2 16  1  0
  3  2  1  0
  3  4  1  6
  4  5  1  0
  5  6  2  0
  6  7  1  0
  7  8  1  0
  8  9  2  0
  9 10  1  0
 10 11  2  0
 11 12  1  0
 12 13  2  0
  5 13  1  0
  8 13  1  0
  3 14  1  0
 14 17  1  0
 14 15  2  0
M  RGP  2  16   1  17   2
V   16 *
V   17 *
M  END
>  <m_name>  (58) 
N-Methyl-Tryptophan

>  <symbol>  (58) 
meW

>  <m_abbr>  (58) 
meW

>  <m_type>  (58) 
aa

>  <m_subtype>  (58) 
non-natural

>  <m_Rgroups>  (58) 
H,OH,None,None

>  <m_RgroupIdx>  (58) 
15,16,None,None

>  <m_attachmentPointIdx>  (58) 
1,13,None,None

>  <natAnalog>  (58) 
W

>  <pdbName>  (58) 
MF9

$$$$

     RDKit          2D

 14 14  0  0  0  0  0  0  0  0999 V2000
   -0.7145    3.7125    0.0000 C   0  0  0  0  0  0  0  0  0  0  0  0
    0.0000    3.3000    0.0000 N   0  0  0  0  0  0  0  0  0  0  0  0
    0.0000    2.4750    0.0000 C   0  0  0  0  0  0  0  0  0  0  0  0
    0.7145    2.0625    0.0000 C   0  0  0  0  0  0  0  0  0  0  0  0
    0.7145    1.2375    0.0000 C   0  0  0  0  0  0  0  0  0  0  0  0
    1.4289    0.8250    0.0000 C   0  0  0  0  0  0  0  0  0  0  0  0
    1.4289    0.0000    0.0000 C   0  0  0  0  0  0  0  0  0  0  0  0
    0.7145   -0.4125    0.0000 C   0  0  0  0  0  0  0  0  0  0  0  0
    0.0000    0.0000    0.0000 C   0  0  0  0  0  0  0  0  0  0  0  0
    0.0000    0.8250    0.0000 C   0  0  0  0  0  0  0  0  0  0  0  0
   -0.7145    2.0625    0.0000 C   0  0  0  0  0  0  0  0  0  0  0  0
   -1.4289    2.4750    0.0000 O   0  0  0  0  0  0  0  0  0  0  0  0
    0.7145    3.7125    0.0000 R#  0  0  0  0  0  0  0  0  0  0  0  0
   -0.7145    1.2375    0.0000 R#  0  0  0  0  0  0  0  0  0  0  0  0
  1  2  1  0
  2 13  1  0
  3  2  1  0
  3  4  1  1
  4  5  1  0
  5  6  2  0
  6  7  1  0
  7  8  2  0
  8  9  1  0
  9 10  2  0
  5 10  1  0
  3 11  1  0
 11 14  1  0
 11 12  2  0
M  RGP  2  13   1  14   2
V   13 *
V   14 *
M  END
>  <m_name>  (59) 
N-Methyl-Phenylalanine

>  <symbol>  (59) 
meF

>  <m_abbr>  (59) 
meF

>  <m_type>  (59) 
aa

>  <m_subtype>  (59) 
non-natural

>  <m_Rgroups>  (59) 
H,OH,None,None

>  <m_RgroupIdx>  (59) 
12,13,None,None

>  <m_attachmentPointIdx>  (59) 
1,10,None,None

>  <natAnalog>  (59) 
F

>  <pdbName>  (59) 
MGU

$$$$

     RDKit          2D

 13 13  0  0  0  0  0  0  0  0999 V2000
   -0.8612    3.5893    0.0000 C   0  0  0  0  0  0  0  0  0  0  0  0
   -0.1467    3.1768    0.0000 N   0  0  0  0  0  0  0  0  0  0  0  0
   -0.1467    2.3518    0.0000 C   0  0  0  0  0  0  0  0  0  0  0  0
    0.5678    1.9393    0.0000 C   0  0  0  0  0  0  0  0  0  0  0  0
    0.5678    1.1143    0.0000 C   0  0  0  0  0  0  0  0  0  0  0  0
    1.2352    0.6294    0.0000 C   0  0  0  0  0  0  0  0  0  0  0  0
    0.9803   -0.1553    0.0000 N   0  0  0  0  0  0  0  0  0  0  0  0
    0.1553   -0.1553    0.0000 C   0  0  0  0  0  0  0  0  0  0  0  0
   -0.0997    0.6294    0.0000 N   0  0  0  0  0  0  0  0  0  0  0  0
   -0.8612    1.9393    0.0000 C   0  0  0  0  0  0  0  0  0  0  0  0
   -1.5757    2.3518    0.0000 O   0  0  0  0  0  0  0  0  0  0  0  0
    0.5678    3.5893    0.0000 R#  0  0  0  0  0  0  0  0  0  0  0  0
   -0.8612    1.1143    0.0000 R#  0  0  0  0  0  0  0  0  0  0  0  0
  1  2  1  0
  2 12  1  0
  3  2  1  0
  3  4  1  1
  4  5  1  0
  5  6  2  0
  6  7  1  0
  7  8  1  0
  8  9  2  0
  5  9  1  0
  3 10  1  0
 10 13  1  0
 10 11  2  0
M  RGP  2  12   1  13   2
V   12 *
V   13 *
M  END
>  <m_name>  (60) 
N-Methyl-Histidine

>  <symbol>  (60) 
meH

>  <m_abbr>  (60) 
meH

>  <m_type>  (60) 
aa

>  <m_subtype>  (60) 
non-natural

>  <m_Rgroups>  (60) 
H,OH,None,None

>  <m_RgroupIdx>  (60) 
11,12,None,None

>  <m_attachmentPointIdx>  (60) 
1,9,None,None

>  <natAnalog>  (60) 
H

>  <pdbName>  (60) 
MG3

$$$$

     RDKit          2D

 11 10  0  0  0  0  0  0  0  0999 V2000
    0.5230    0.5230    0.0000 C   0  0  0  0  0  0  0  0  0  0  0  0
    1.2375    0.1105    0.0000 C   0  0  0  0  0  0  0  0  0  0  0  0
    1.9520    0.5230    0.0000 C   0  0  0  0  0  0  0  0  0  0  0  0
    1.2375   -0.7145    0.0000 C   0  0  0  0  0  0  0  0  0  0  0  0
    1.9520   -1.1270    0.0000 C   0  0  0  0  0  0  0  0  0  0  0  0
    1.9520   -1.9520    0.0000 N   0  0  0  0  0  0  0  0  0  0  0  0
    2.6664   -2.3645    0.0000 C   0  0  0  0  0  0  0  0  0  0  0  0
    2.6664   -0.7145    0.0000 C   0  0  0  0  0  0  0  0  0  0  0  0
    3.3809   -1.1270    0.0000 O   0  0  0  0  0  0  0  0  0  0  0  0
    1.2375   -2.3645    0.0000 R#  0  0  0  0  0  0  0  0  0  0  0  0
    2.6664    0.1105    0.0000 R#  0  0  0  0  0  0  0  0  0  0  0  0
  1  2  1  0
  2  3  1  0
  2  4  1  0
  5  4  1  1
  5  6  1  0
  6  7  1  0
  6 10  1  0
  5  8  1  0
  8 11  1  0
  8  9  2  0
M  RGP  2  10   1  11   2
V   10 *
V   11 *
M  END
>  <m_name>  (61) 
N-Methyl-Leucine

>  <symbol>  (61) 
meL

>  <m_abbr>  (61) 
meL

>  <m_type>  (61) 
aa

>  <m_subtype>  (61) 
non-natural

>  <m_Rgroups>  (61) 
H,OH,None,None

>  <m_RgroupIdx>  (61) 
9,10,None,None

>  <m_attachmentPointIdx>  (61) 
5,7,None,None

>  <natAnalog>  (61) 
L

>  <pdbName>  (61) 
MG4

$$$$

     RDKit          2D

 10  9  0  0  0  0  0  0  0  0999 V2000
    0.8250   -1.4289    0.0000 C   0  0  0  0  0  0  0  0  0  0  0  0
    1.2375   -2.1434    0.0000 C   0  0  0  0  0  0  0  0  0  0  0  0
    2.0625   -2.1434    0.0000 C   0  0  0  0  0  0  0  0  0  0  0  0
    2.4750   -2.8579    0.0000 C   0  0  0  0  0  0  0  0  0  0  0  0
    3.3000   -2.8579    0.0000 C   0  0  0  0  0  0  0  0  0  0  0  0
    3.7125   -3.5724    0.0000 N   0  0  0  0  0  0  0  0  0  0  0  0
    3.7125   -2.1434    0.0000 C   0  0  0  0  0  0  0  0  0  0  0  0
    4.5375   -2.1434    0.0000 O   0  0  0  0  0  0  0  0  0  0  0  0
    4.5375   -3.5724    0.0000 R#  0  0  0  0  0  0  0  0  0  0  0  0
    3.3000   -1.4289    0.0000 R#  0  0  0  0  0  0  0  0  0  0  0  0
  1  2  1  0
  2  3  1  0
  3  4  1  0
  5  4  1  1
  5  6  1  0
  6  9  1  0
  5  7  1  0
  7 10  1  0
  7  8  2  0
M  RGP  2   9   1  10   2
V    9 *
V   10 *
M  END
>  <m_name>  (62) 
Norleucine

>  <symbol>  (62) 
Nle

>  <m_abbr>  (62) 
Nle

>  <m_type>  (62) 
aa

>  <m_subtype>  (62) 
non-natural

>  <m_Rgroups>  (62) 
H,OH,None,None

>  <m_RgroupIdx>  (62) 
8,9,None,None

>  <m_attachmentPointIdx>  (62) 
5,6,None,None

>  <natAnalog>  (62) 
L

>  <pdbName>  (62) 
NLF

$$$$

     RDKit          2D

  9  8  0  0  0  0  0  0  0  0999 V2000
    0.5230    0.5230    0.0000 C   0  0  0  0  0  0  0  0  0  0  0  0
    1.2375    0.1105    0.0000 C   0  0  0  0  0  0  0  0  0  0  0  0
    1.2375   -0.7145    0.0000 C   0  0  0  0  0  0  0  0  0  0  0  0
    1.9520   -1.1270    0.0000 C   0  0  0  0  0  0  0  0  0  0  0  0
    1.9520   -1.9520    0.0000 N   0  0  0  0  0  0  0  0  0  0  0  0
    2.6664   -0.7145    0.0000 C   0  0  0  0  0  0  0  0  0  0  0  0
    3.3809   -1.1270    0.0000 O   0  0  0  0  0  0  0  0  0  0  0  0
    2.6664   -2.3645    0.0000 R#  0  0  0  0  0  0  0  0  0  0  0  0
    2.6664    0.1105    0.0000 R#  0  0  0  0  0  0  0  0  0  0  0  0
  1  2  1  0
  2  3  1  0
  4  3  1  1
  4  5  1  0
  5  8  1  0
  4  6  1  0
  6  9  1  0
  6  7  2  0
M  RGP  2   8   1   9   2
V    8 *
V    9 *
M  END
>  <m_name>  (63) 
Norvaline

>  <symbol>  (63) 
Nva

>  <m_abbr>  (63) 
Nva

>  <m_type>  (63) 
aa

>  <m_subtype>  (63) 
non-natural

>  <m_Rgroups>  (63) 
H,OH,None,None

>  <m_RgroupIdx>  (63) 
7,8,None,None

>  <m_attachmentPointIdx>  (63) 
4,5,None,None

>  <natAnalog>  (63) 
V

>  <pdbName>  (63) 
NVF

$$$$

     RDKit          2D

 11 10  0  0  0  0  0  0  0  0999 V2000
    3.7125   -3.5724    0.0000 N   0  0  0  0  0  0  0  0  0  0  0  0
    3.3000   -2.8579    0.0000 C   0  0  0  0  0  0  0  0  0  0  0  0
    2.4750   -2.8579    0.0000 C   0  0  0  0  0  0  0  0  0  0  0  0
    2.0625   -2.1434    0.0000 C   0  0  0  0  0  0  0  0  0  0  0  0
    1.2375   -2.1434    0.0000 C   0  0  0  0  0  0  0  0  0  0  0  0
    0.8250   -1.4289    0.0000 N   0  0  0  0  0  0  0  0  0  0  0  0
    3.7125   -2.1434    0.0000 C   0  0  0  0  0  0  0  0  0  0  0  0
    4.5375   -2.1434    0.0000 O   0  0  0  0  0  0  0  0  0  0  0  0
    4.5375   -3.5724    0.0000 R#  0  0  0  0  0  0  0  0  0  0  0  0
    0.0000   -1.4289    0.0000 R#  0  0  0  0  0  0  0  0  0  0  0  0
    3.3000   -1.4289    0.0000 R#  0  0  0  0  0  0  0  0  0  0  0  0
  9  1  1  0
  2  1  1  0
  2  3  1  1
  3  4  1  0
  4  5  1  0
  5  6  1  0
  6 10  1  0
  2  7  1  0
  7 11  1  0
  7  8  2  0
M  RGP  3   9   1  10   3  11   2
V    9 *
V   10 *
V   11 *
M  END
>  <m_name>  (64) 
L-ornithine

>  <symbol>  (64) 
Orn

>  <m_abbr>  (64) 
Orn

>  <m_type>  (64) 
aa

>  <m_subtype>  (64) 
non-natural

>  <m_Rgroups>  (64) 
H,OH,H,None

>  <m_RgroupIdx>  (64) 
8,10,9,None

>  <m_attachmentPointIdx>  (64) 
0,6,5,None

>  <natAnalog>  (64) 
K

>  <pdbName>  (64) 
ORF

$$$$

     RDKit          2D

  9  8  0  0  0  0  0  0  0  0999 V2000
    0.5230   -1.9520    0.0000 C   0  0  0  0  0  0  0  0  0  0  0  0
    0.5230   -1.1270    0.0000 C   0  0  0  0  0  0  0  0  0  0  0  0
    1.2375   -0.7145    0.0000 C   0  0  0  0  0  0  0  0  0  0  0  0
    1.6500   -1.4289    0.0000 C   0  0  0  0  0  0  0  0  0  0  0  0
    1.9520   -0.3020    0.0000 N   0  0  0  0  0  0  0  0  0  0  0  0
    0.8250    0.0000    0.0000 C   0  0  0  0  0  0  0  0  0  0  0  0
    0.0000    0.0000    0.0000 O   0  0  0  0  0  0  0  0  0  0  0  0
    1.9520    0.5230    0.0000 R#  0  0  0  0  0  0  0  0  0  0  0  0
    1.2375    0.7145    0.0000 R#  0  0  0  0  0  0  0  0  0  0  0  0
  1  2  1  0
  3  2  1  0
  3  4  1  6
  3  5  1  0
  5  8  1  0
  3  6  1  0
  6  9  1  0
  6  7  2  0
M  RGP  2   8   1   9   2
V    8 *
V    9 *
M  END
>  <m_name>  (65) 
Isovaline

>  <symbol>  (65) 
Iva

>  <m_abbr>  (65) 
Iva

>  <m_type>  (65) 
aa

>  <m_subtype>  (65) 
non-natural

>  <m_Rgroups>  (65) 
H,OH,None,None

>  <m_RgroupIdx>  (65) 
7,8,None,None

>  <m_attachmentPointIdx>  (65) 
4,5,None,None

>  <natAnalog>  (65) 
V

>  <pdbName>  (65) 
6ZS

$$$$

     RDKit          2D

 10  9  0  0  0  0  0  0  0  0999 V2000
    0.5230    0.5230    0.0000 C   0  0  0  0  0  0  0  0  0  0  0  0
    1.2375    0.1105    0.0000 C   0  0  0  0  0  0  0  0  0  0  0  0
    1.2375   -0.7145    0.0000 C   0  0  0  0  0  0  0  0  0  0  0  0
    0.5230   -1.1270    0.0000 C   0  0  0  0  0  0  0  0  0  0  0  0
    1.9520   -1.1270    0.0000 C   0  0  0  0  0  0  0  0  0  0  0  0
    1.9520   -1.9520    0.0000 N   0  0  0  0  0  0  0  0  0  0  0  0
    2.6664   -0.7145    0.0000 C   0  0  0  0  0  0  0  0  0  0  0  0
    3.3809   -1.1270    0.0000 O   0  0  0  0  0  0  0  0  0  0  0  0
    2.6664   -2.3645    0.0000 R#  0  0  0  0  0  0  0  0  0  0  0  0
    2.6664    0.1105    0.0000 R#  0  0  0  0  0  0  0  0  0  0  0  0
  1  2  1  0
  3  2  1  0
  3  4  1  6
  3  5  1  0
  5  6  1  1
  6  9  1  0
  5  7  1  0
  7 10  1  0
  7  8  2  0
M  RGP  2   9   1  10   2
V    9 *
V   10 *
M  END
>  <m_name>  (66) 
L-allo-Isoleucine

>  <symbol>  (66) 
aIle

>  <m_abbr>  (66) 
aIle

>  <m_type>  (66) 
aa

>  <m_subtype>  (66) 
non-natural

>  <m_Rgroups>  (66) 
H,OH,None,None

>  <m_RgroupIdx>  (66) 
8,9,None,None

>  <m_attachmentPointIdx>  (66) 
5,6,None,None

>  <natAnalog>  (66) 
I

>  <pdbName>  (66) 
AID

$$$$

     RDKit          2D

 11 10  0  0  0  0  0  0  0  0999 V2000
   10.4062   -3.0353    0.0000 N   0  0  0  0  0  0  0  0  0  0  0  0
    9.9937   -3.7498    0.0000 C   0  0  0  0  0  0  0  0  0  0  0  0
    9.1687   -3.7498    0.0000 C   0  0  0  0  0  0  0  0  0  0  0  0
    8.7562   -4.4643    0.0000 C   0  0  0  0  0  0  0  0  0  0  0  0
    7.9312   -4.4643    0.0000 C   0  0  0  0  0  0  0  0  0  0  0  0
    7.5187   -3.7498    0.0000 O   0  0  0  0  0  0  0  0  0  0  0  0
   10.4062   -4.4643    0.0000 C   0  0  0  0  0  0  0  0  0  0  0  0
    9.9937   -5.1788    0.0000 O   0  0  0  0  0  0  0  0  0  0  0  0
   11.2312   -3.0353    0.0000 R#  0  0  0  0  0  0  0  0  0  0  0  0
    7.5187   -5.1788    0.0000 R#  0  0  0  0  0  0  0  0  0  0  0  0
   11.2312   -4.4643    0.0000 R#  0  0  0  0  0  0  0  0  0  0  0  0
  9  1  1  0
  2  1  1  0
  2  3  1  6
  3  4  1  0
  4  5  1  0
  5 10  1  0
  5  6  2  0
  2  7  1  0
  7 11  1  0
  7  8  2  0
M  RGP  3   9   1  10   2  11   3
V    9 *
V   10 *
V   11 *
M  END
>  <m_name>  (67) 
Gamma glutamic acid

>  <symbol>  (67) 
gGlu

>  <m_abbr>  (67) 
gGlu

>  <m_type>  (67) 
aa

>  <m_subtype>  (67) 
non-natural

>  <m_Rgroups>  (67) 
H,OH,OH,None

>  <m_RgroupIdx>  (67) 
8,9,10,None

>  <m_attachmentPointIdx>  (67) 
0,4,6,None

>  <natAnalog>  (67) 
E

>  <pdbName>  (67) 
GGI

$$$$

     RDKit          2D

 10  9  0  0  0  0  0  0  0  0999 V2000
    3.7125    3.5724    0.0000 N   0  0  0  0  0  0  0  0  0  0  0  0
    3.3000    2.8579    0.0000 C   0  0  0  0  0  0  0  0  0  0  0  0
    2.4750    2.8579    0.0000 C   0  0  0  0  0  0  0  0  0  0  0  0
    2.0625    2.1434    0.0000 C   0  0  0  0  0  0  0  0  0  0  0  0
    1.2375    2.1434    0.0000 S   0  0  0  0  0  0  0  0  0  0  0  0
    3.7125    2.1434    0.0000 C   0  0  0  0  0  0  0  0  0  0  0  0
    3.3000    1.4289    0.0000 O   0  0  0  0  0  0  0  0  0  0  0  0
    4.5375    3.5724    0.0000 R#  0  0  0  0  0  0  0  0  0  0  0  0
    0.8250    1.4289    0.0000 R#  0  0  0  0  0  0  0  0  0  0  0  0
    4.5375    2.1434    0.0000 R#  0  0  0  0  0  0  0  0  0  0  0  0
  8  1  1  0
  2  1  1  0
  2  3  1  6
  3  4  1  0
  4  5  1  0
  5  9  1  0
  2  6  1  0
  6 10  1  0
  6  7  2  0
M  RGP  3   8   1   9   3  10   2
V    8 *
V    9 *
V   10 *
M  END
>  <m_name>  (68) 
Homocysteine

>  <symbol>  (68) 
Hcy

>  <m_abbr>  (68) 
Hcy

>  <m_type>  (68) 
aa

>  <m_subtype>  (68) 
non-natural

>  <m_Rgroups>  (68) 
H,OH,H,None

>  <m_RgroupIdx>  (68) 
7,9,8,None

>  <m_attachmentPointIdx>  (68) 
0,5,4,None

>  <natAnalog>  (68) 
C

>  <pdbName>  (68) 
HCB

$$$$

     RDKit          2D

  9  8  0  0  0  0  0  0  0  0999 V2000
    0.5230    0.5230    0.0000 O   0  0  0  0  0  0  0  0  0  0  0  0
    1.2375    0.1105    0.0000 C   0  0  0  0  0  0  0  0  0  0  0  0
    1.2375   -0.7145    0.0000 C   0  0  0  0  0  0  0  0  0  0  0  0
    1.9520   -1.1270    0.0000 C   0  0  0  0  0  0  0  0  0  0  0  0
    1.9520   -1.9520    0.0000 N   0  0  0  0  0  0  0  0  0  0  0  0
    2.6664   -0.7145    0.0000 C   0  0  0  0  0  0  0  0  0  0  0  0
    3.3809   -1.1270    0.0000 O   0  0  0  0  0  0  0  0  0  0  0  0
    2.6664   -2.3645    0.0000 R#  0  0  0  0  0  0  0  0  0  0  0  0
    2.6664    0.1105    0.0000 R#  0  0  0  0  0  0  0  0  0  0  0  0
  1  2  1  0
  2  3  1  0
  4  3  1  1
  4  5  1  0
  5  8  1  0
  4  6  1  0
  6  9  1  0
  6  7  2  0
M  RGP  2   8   1   9   2
V    8 *
V    9 *
M  END
>  <m_name>  (69) 
Homoserine

>  <symbol>  (69) 
Hse

>  <m_abbr>  (69) 
Hse

>  <m_type>  (69) 
aa

>  <m_subtype>  (69) 
non-natural

>  <m_Rgroups>  (69) 
H,OH,None,None

>  <m_RgroupIdx>  (69) 
7,8,None,None

>  <m_attachmentPointIdx>  (69) 
4,5,None,None

>  <natAnalog>  (69) 
S

>  <pdbName>  (69) 
HSB

$$$$

     RDKit          2D

 10 10  0  0  0  0  0  0  0  0999 V2000
    0.5678    1.9393    0.0000 O   0  0  0  0  0  0  0  0  0  0  0  0
    0.5678    1.1143    0.0000 C   0  0  0  0  0  0  0  0  0  0  0  0
    1.2352    0.6294    0.0000 C   0  0  0  0  0  0  0  0  0  0  0  0
    0.9803   -0.1553    0.0000 C   0  0  0  0  0  0  0  0  0  0  0  0
    0.1553   -0.1553    0.0000 N   0  0  0  0  0  0  0  0  0  0  0  0
   -0.0997    0.6294    0.0000 C   0  0  0  0  0  0  0  0  0  0  0  0
    1.4652   -0.8227    0.0000 C   0  0  0  0  0  0  0  0  0  0  0  0
    1.1296   -1.5764    0.0000 O   0  0  0  0  0  0  0  0  0  0  0  0
   -0.3297   -0.8227    0.0000 R#  0  0  0  0  0  0  0  0  0  0  0  0
    2.2857   -0.7365    0.0000 R#  0  0  0  0  0  0  0  0  0  0  0  0
  2  1  1  6
  2  3  1  0
  4  3  1  0
  4  5  1  0
  5  9  1  0
  5  6  1  0
  2  6  1  0
  4  7  1  1
  7 10  1  0
  7  8  2  0
M  RGP  2   9   1  10   2
V    9 *
V   10 *
M  END
>  <m_name>  (70) 
4-Hydroxyproline

>  <symbol>  (70) 
Hyp

>  <m_abbr>  (70) 
Hyp

>  <m_type>  (70) 
aa

>  <m_subtype>  (70) 
non-natural

>  <m_Rgroups>  (70) 
H,OH,None,None

>  <m_RgroupIdx>  (70) 
8,9,None,None

>  <m_attachmentPointIdx>  (70) 
4,6,None,None

>  <natAnalog>  (70) 
P

>  <pdbName>  (70) 
HYJ

$$$$

     RDKit          2D

 11 10  0  0  0  0  0  0  0  0999 V2000
    1.0312    1.0717    0.0000 N   0  0  0  0  0  0  0  0  0  0  0  0
    0.6187    0.3572    0.0000 C   0  0  0  0  0  0  0  0  0  0  0  0
   -0.2062    0.3572    0.0000 C   0  0  0  0  0  0  0  0  0  0  0  0
   -0.6187   -0.3572    0.0000 C   0  0  0  0  0  0  0  0  0  0  0  0
   -1.4437   -0.3572    0.0000 C   0  0  0  0  0  0  0  0  0  0  0  0
   -1.8562    0.3572    0.0000 O   0  0  0  0  0  0  0  0  0  0  0  0
    1.0312   -0.3572    0.0000 C   0  0  0  0  0  0  0  0  0  0  0  0
    0.6187   -1.0717    0.0000 O   0  0  0  0  0  0  0  0  0  0  0  0
    1.8562    1.0717    0.0000 R#  0  0  0  0  0  0  0  0  0  0  0  0
   -1.8562   -1.0717    0.0000 R#  0  0  0  0  0  0  0  0  0  0  0  0
    1.8562   -0.3572    0.0000 R#  0  0  0  0  0  0  0  0  0  0  0  0
  9  1  1  0
  2  1  1  0
  2  3  1  1
  3  4  1  0
  4  5  1  0
  5 10  1  0
  5  6  2  0
  2  7  1  0
  7 11  1  0
  7  8  2  0
M  RGP  3   9   1  10   2  11   3
V    9 *
V   10 *
V   11 *
M  END
>  <m_name>  (71) 
D-Gamma glutamic acid

>  <symbol>  (71) 
D_gGlu

>  <m_abbr>  (71) 
D_gGlu

>  <m_type>  (71) 
aa

>  <m_subtype>  (71) 
non-natural

>  <m_Rgroups>  (71) 
H,OH,OH,None

>  <m_RgroupIdx>  (71) 
8,9,10,None

>  <m_attachmentPointIdx>  (71) 
0,4,6,None

>  <natAnalog>  (71) 
E

>  <pdbName>  (71) 
DGE

$$$$

     RDKit          2D

 10  9  0  0  0  0  0  0  0  0999 V2000
    0.8250   -1.4289    0.0000 C   0  0  0  0  0  0  0  0  0  0  0  0
    1.2375   -2.1434    0.0000 C   0  0  0  0  0  0  0  0  0  0  0  0
    2.0625   -2.1434    0.0000 C   0  0  0  0  0  0  0  0  0  0  0  0
    2.4750   -2.8579    0.0000 C   0  0  0  0  0  0  0  0  0  0  0  0
    3.3000   -2.8579    0.0000 C   0  0  0  0  0  0  0  0  0  0  0  0
    3.7125   -3.5724    0.0000 N   0  0  0  0  0  0  0  0  0  0  0  0
    3.7125   -2.1434    0.0000 C   0  0  0  0  0  0  0  0  0  0  0  0
    4.5375   -2.1434    0.0000 O   0  0  0  0  0  0  0  0  0  0  0  0
    4.5375   -3.5724    0.0000 R#  0  0  0  0  0  0  0  0  0  0  0  0
    3.3000   -1.4289    0.0000 R#  0  0  0  0  0  0  0  0  0  0  0  0
  1  2  1  0
  2  3  1  0
  3  4  1  0
  5  4  1  6
  5  6  1  0
  6  9  1  0
  5  7  1  0
  7 10  1  0
  7  8  2  0
M  RGP  2   9   1  10   2
V    9 *
V   10 *
M  END
>  <m_name>  (72) 
D-Norleucine

>  <symbol>  (72) 
D_Nle

>  <m_abbr>  (72) 
D_Nle

>  <m_type>  (72) 
aa

>  <m_subtype>  (72) 
non-natural

>  <m_Rgroups>  (72) 
H,OH,None,None

>  <m_RgroupIdx>  (72) 
8,9,None,None

>  <m_attachmentPointIdx>  (72) 
5,6,None,None

>  <natAnalog>  (72) 
L

>  <pdbName>  (72) 
DNU

$$$$

     RDKit          2D

 14 14  0  0  0  0  0  0  0  0999 V2000
    2.1434   -0.4125    0.0000 N   0  0  0  0  0  0  0  0  0  0  0  0
    2.1434   -1.2375    0.0000 C   0  0  0  0  0  0  0  0  0  0  0  0
    1.4289   -1.6500    0.0000 C   0  0  0  0  0  0  0  0  0  0  0  0
    1.4289   -2.4750    0.0000 C   0  0  0  0  0  0  0  0  0  0  0  0
    0.7145   -2.8875    0.0000 C   0  0  0  0  0  0  0  0  0  0  0  0
    0.7145   -3.7125    0.0000 C   0  0  0  0  0  0  0  0  0  0  0  0
    0.0000   -4.1250    0.0000 C   0  0  0  0  0  0  0  0  0  0  0  0
   -0.7145   -3.7125    0.0000 C   0  0  0  0  0  0  0  0  0  0  0  0
   -0.7145   -2.8875    0.0000 C   0  0  0  0  0  0  0  0  0  0  0  0
    0.0000   -2.4750    0.0000 C   0  0  0  0  0  0  0  0  0  0  0  0
    2.8579   -1.6500    0.0000 C   0  0  0  0  0  0  0  0  0  0  0  0
    2.8579   -2.4750    0.0000 O   0  0  0  0  0  0  0  0  0  0  0  0
    2.8579    0.0000    0.0000 R#  0  0  0  0  0  0  0  0  0  0  0  0
    3.5724   -1.2375    0.0000 R#  0  0  0  0  0  0  0  0  0  0  0  0
 13  1  1  0
  2  1  1  0
  2  3  1  1
  3  4  1  0
  4  5  1  0
  5  6  2  0
  6  7  1  0
  7  8  2  0
  8  9  1  0
  9 10  2  0
  5 10  1  0
  2 11  1  0
 11 14  1  0
 11 12  2  0
M  RGP  2  13   1  14   2
V   13 *
V   14 *
M  END
>  <m_name>  (73) 
D-Homophenylalanine

>  <symbol>  (73) 
D_hPhe

>  <m_abbr>  (73) 
D_hPhe

>  <m_type>  (73) 
aa

>  <m_subtype>  (73) 
non-natural

>  <m_Rgroups>  (73) 
H,OH,None,None

>  <m_RgroupIdx>  (73) 
12,13,None,None

>  <m_attachmentPointIdx>  (73) 
0,10,None,None

>  <natAnalog>  (73) 
F

>  <pdbName>  (73) 
DHX

$$$$

     RDKit          2D

 10 10  0  0  0  0  0  0  0  0999 V2000
    0.5678    1.9393    0.0000 O   0  0  0  0  0  0  0  0  0  0  0  0
    0.5678    1.1143    0.0000 C   0  0  0  0  0  0  0  0  0  0  0  0
    1.2352    0.6294    0.0000 C   0  0  0  0  0  0  0  0  0  0  0  0
    0.9803   -0.1553    0.0000 C   0  0  0  0  0  0  0  0  0  0  0  0
    0.1553   -0.1553    0.0000 N   0  0  0  0  0  0  0  0  0  0  0  0
   -0.0997    0.6294    0.0000 C   0  0  0  0  0  0  0  0  0  0  0  0
    1.4652   -0.8227    0.0000 C   0  0  0  0  0  0  0  0  0  0  0  0
    1.1296   -1.5764    0.0000 O   0  0  0  0  0  0  0  0  0  0  0  0
   -0.3297   -0.8227    0.0000 R#  0  0  0  0  0  0  0  0  0  0  0  0
    2.2857   -0.7365    0.0000 R#  0  0  0  0  0  0  0  0  0  0  0  0
  2  1  1  1
  2  3  1  0
  4  3  1  0
  4  5  1  0
  5  9  1  0
  5  6  1  0
  2  6  1  0
  4  7  1  6
  7 10  1  0
  7  8  2  0
M  RGP  2   9   1  10   2
V    9 *
V   10 *
M  END
>  <m_name>  (74) 
D-4-Hydroxyproline

>  <symbol>  (74) 
D_Hyp

>  <m_abbr>  (74) 
D_Hyp

>  <m_type>  (74) 
aa

>  <m_subtype>  (74) 
non-natural

>  <m_Rgroups>  (74) 
H,OH,None,None

>  <m_RgroupIdx>  (74) 
8,9,None,None

>  <m_attachmentPointIdx>  (74) 
4,6,None,None

>  <natAnalog>  (74) 
P

>  <pdbName>  (74) 
DH0

$$$$

     RDKit          2D

  9  8  0  0  0  0  0  0  0  0999 V2000
    0.5230    0.5230    0.0000 C   0  0  0  0  0  0  0  0  0  0  0  0
    1.2375    0.1105    0.0000 C   0  0  0  0  0  0  0  0  0  0  0  0
    1.2375   -0.7145    0.0000 C   0  0  0  0  0  0  0  0  0  0  0  0
    1.9520   -1.1270    0.0000 C   0  0  0  0  0  0  0  0  0  0  0  0
    1.9520   -1.9520    0.0000 N   0  0  0  0  0  0  0  0  0  0  0  0
    2.6664   -0.7145    0.0000 C   0  0  0  0  0  0  0  0  0  0  0  0
    3.3809   -1.1270    0.0000 O   0  0  0  0  0  0  0  0  0  0  0  0
    2.6664   -2.3645    0.0000 R#  0  0  0  0  0  0  0  0  0  0  0  0
    2.6664    0.1105    0.0000 R#  0  0  0  0  0  0  0  0  0  0  0  0
  1  2  1  0
  2  3  1  0
  4  3  1  6
  4  5  1  0
  5  8  1  0
  4  6  1  0
  6  9  1  0
  6  7  2  0
M  RGP  2   8   1   9   2
V    8 *
V    9 *
M  END
>  <m_name>  (75) 
D-Norvaline

>  <symbol>  (75) 
D_Nva

>  <m_abbr>  (75) 
D_Nva

>  <m_type>  (75) 
aa

>  <m_subtype>  (75) 
non-natural

>  <m_Rgroups>  (75) 
H,OH,None,None

>  <m_RgroupIdx>  (75) 
7,8,None,None

>  <m_attachmentPointIdx>  (75) 
4,5,None,None

>  <natAnalog>  (75) 
V

>  <pdbName>  (75) 
DGK

$$$$

     RDKit          2D

 11 10  0  0  0  0  0  0  0  0999 V2000
    3.7125   -3.5724    0.0000 N   0  0  0  0  0  0  0  0  0  0  0  0
    3.3000   -2.8579    0.0000 C   0  0  0  0  0  0  0  0  0  0  0  0
    2.4750   -2.8579    0.0000 C   0  0  0  0  0  0  0  0  0  0  0  0
    2.0625   -2.1434    0.0000 C   0  0  0  0  0  0  0  0  0  0  0  0
    1.2375   -2.1434    0.0000 C   0  0  0  0  0  0  0  0  0  0  0  0
    0.8250   -1.4289    0.0000 N   0  0  0  0  0  0  0  0  0  0  0  0
    3.7125   -2.1434    0.0000 C   0  0  0  0  0  0  0  0  0  0  0  0
    4.5375   -2.1434    0.0000 O   0  0  0  0  0  0  0  0  0  0  0  0
    4.5375   -3.5724    0.0000 R#  0  0  0  0  0  0  0  0  0  0  0  0
    0.0000   -1.4289    0.0000 R#  0  0  0  0  0  0  0  0  0  0  0  0
    3.3000   -1.4289    0.0000 R#  0  0  0  0  0  0  0  0  0  0  0  0
  9  1  1  0
  2  1  1  0
  2  3  1  6
  3  4  1  0
  4  5  1  0
  5  6  1  0
  6 10  1  0
  2  7  1  0
  7 11  1  0
  7  8  2  0
M  RGP  3   9   1  10   3  11   2
V    9 *
V   10 *
V   11 *
M  END
>  <m_name>  (76) 
D-Ornithine

>  <symbol>  (76) 
D_Orn

>  <m_abbr>  (76) 
D_Orn

>  <m_type>  (76) 
aa

>  <m_subtype>  (76) 
non-natural

>  <m_Rgroups>  (76) 
H,OH,H,None

>  <m_RgroupIdx>  (76) 
8,10,9,None

>  <m_attachmentPointIdx>  (76) 
0,6,5,None

>  <natAnalog>  (76) 
K

>  <pdbName>  (76) 
DOU

$$$$

     RDKit          2D

 10 10  0  0  0  0  0  0  0  0999 V2000
    0.5678    1.1143    0.0000 N   0  0  0  0  0  0  0  0  0  0  0  0
    1.2352    0.6294    0.0000 C   0  0  0  0  0  0  0  0  0  0  0  0
    0.9803   -0.1553    0.0000 C   0  0  0  0  0  0  0  0  0  0  0  0
    0.1553   -0.1553    0.0000 C   0  0  0  0  0  0  0  0  0  0  0  0
   -0.0997    0.6294    0.0000 C   0  0  0  0  0  0  0  0  0  0  0  0
   -0.8843    0.8843    0.0000 O   0  0  0  0  0  0  0  0  0  0  0  0
    2.0198    0.8843    0.0000 C   0  0  0  0  0  0  0  0  0  0  0  0
    2.6329    0.3323    0.0000 O   0  0  0  0  0  0  0  0  0  0  0  0
    0.5678    1.9393    0.0000 R#  0  0  0  0  0  0  0  0  0  0  0  0
    2.1913    1.6913    0.0000 R#  0  0  0  0  0  0  0  0  0  0  0  0
  9  1  1  0
  2  1  1  0
  2  3  1  0
  3  4  1  0
  4  5  1  0
  1  5  1  0
  5  6  2  0
  2  7  1  6
  7 10  1  0
  7  8  2  0
M  RGP  2   9   1  10   2
V    9 *
V   10 *
M  END
>  <m_name>  (77) 
Pyroglutamic acid

>  <symbol>  (77) 
Pyr

>  <m_abbr>  (77) 
Pyr

>  <m_type>  (77) 
aa

>  <m_subtype>  (77) 
non-natural

>  <m_Rgroups>  (77) 
H,OH,None,None

>  <m_RgroupIdx>  (77) 
8,9,None,None

>  <m_attachmentPointIdx>  (77) 
0,6,None,None

>  <natAnalog>  (77) 
E

>  <pdbName>  (77) 
PYK

$$$$

     RDKit          2D

  9  9  0  0  0  0  0  0  0  0999 V2000
    0.5678    1.9393    0.0000 C   0  0  0  0  0  0  0  0  0  0  0  0
   -0.1467    2.3518    0.0000 O   0  0  0  0  0  0  0  0  0  0  0  0
    0.5678    1.1143    0.0000 C   0  0  0  0  0  0  0  0  0  0  0  0
    1.2352    0.6294    0.0000 C   0  0  0  0  0  0  0  0  0  0  0  0
    0.9803   -0.1553    0.0000 C   0  0  0  0  0  0  0  0  0  0  0  0
    0.1553   -0.1553    0.0000 C   0  0  0  0  0  0  0  0  0  0  0  0
   -0.3297   -0.8227    0.0000 O   0  0  0  0  0  0  0  0  0  0  0  0
   -0.0997    0.6294    0.0000 N   0  0  0  0  0  0  0  0  0  0  0  0
    1.2822    2.3518    0.0000 R#  0  0  0  0  0  0  0  0  0  0  0  0
  9  1  1  0
  1  2  2  0
  3  1  1  1
  3  4  1  0
  4  5  1  0
  5  6  1  0
  6  7  2  0
  6  8  1  0
  3  8  1  0
M  RGP  1   9   2
V    9 *
M  END
>  <m_name>  (78) 
D-Pyroglutamic acid

>  <symbol>  (78) 
D_Pyr

>  <m_abbr>  (78) 
D_Pyr

>  <m_type>  (78) 
aa

>  <m_subtype>  (78) 
non-natural

>  <m_Rgroups>  (78) 
None,OH,None,None

>  <m_RgroupIdx>  (78) 
None,8,None,None

>  <m_attachmentPointIdx>  (78) 
None,0,None,None

>  <natAnalog>  (78) 
E

>  <pdbName>  (78) 
DG5

$$$$

     RDKit          2D

 14 14  0  0  0  0  0  0  0  0999 V2000
    0.7145    2.0625    0.0000 Cl  0  0  0  0  0  0  0  0  0  0  0  0
    0.7145    1.2375    0.0000 C   0  0  0  0  0  0  0  0  0  0  0  0
    1.4289    0.8250    0.0000 C   0  0  0  0  0  0  0  0  0  0  0  0
    1.4289    0.0000    0.0000 C   0  0  0  0  0  0  0  0  0  0  0  0
    0.7145   -0.4125    0.0000 C   0  0  0  0  0  0  0  0  0  0  0  0
    0.0000    0.0000    0.0000 C   0  0  0  0  0  0  0  0  0  0  0  0
   -0.7145   -0.4125    0.0000 C   0  0  0  0  0  0  0  0  0  0  0  0
   -0.7145   -1.2375    0.0000 C   0  0  0  0  0  0  0  0  0  0  0  0
   -1.4289   -1.6500    0.0000 N   0  0  0  0  0  0  0  0  0  0  0  0
    0.0000   -1.6500    0.0000 C   0  0  0  0  0  0  0  0  0  0  0  0
    0.7145   -1.2375    0.0000 O   0  0  0  0  0  0  0  0  0  0  0  0
    0.0000    0.8250    0.0000 C   0  0  0  0  0  0  0  0  0  0  0  0
   -1.4289   -2.4750    0.0000 R#  0  0  0  0  0  0  0  0  0  0  0  0
    0.0000   -2.4750    0.0000 R#  0  0  0  0  0  0  0  0  0  0  0  0
  1  2  1  0
  2  3  2  0
  3  4  1  0
  4  5  2  0
  5  6  1  0
  6  7  1  0
  8  7  1  1
  8  9  1  0
  9 13  1  0
  8 10  1  0
 10 14  1  0
 10 11  2  0
  6 12  2  0
  2 12  1  0
M  RGP  2  13   1  14   2
V   13 *
V   14 *
M  END
>  <m_name>  (79) 
3-Chloro-L-phenylalanine

>  <symbol>  (79) 
Phe_3Cl

>  <m_abbr>  (79) 
Phe_3Cl

>  <m_type>  (79) 
aa

>  <m_subtype>  (79) 
non-natural

>  <m_Rgroups>  (79) 
H,OH,None,None

>  <m_RgroupIdx>  (79) 
12,13,None,None

>  <m_attachmentPointIdx>  (79) 
8,9,None,None

>  <natAnalog>  (79) 
F

>  <pdbName>  (79) 
PAA

$$$$

     RDKit          2D

 14 14  0  0  0  0  0  0  0  0999 V2000
    0.7145    2.0625    0.0000 Cl  0  0  0  0  0  0  0  0  0  0  0  0
    0.7145    1.2375    0.0000 C   0  0  0  0  0  0  0  0  0  0  0  0
    1.4289    0.8250    0.0000 C   0  0  0  0  0  0  0  0  0  0  0  0
    1.4289    0.0000    0.0000 C   0  0  0  0  0  0  0  0  0  0  0  0
    0.7145   -0.4125    0.0000 C   0  0  0  0  0  0  0  0  0  0  0  0
    0.7145   -1.2375    0.0000 C   0  0  0  0  0  0  0  0  0  0  0  0
    1.4289   -1.6500    0.0000 C   0  0  0  0  0  0  0  0  0  0  0  0
    1.4289   -2.4750    0.0000 N   0  0  0  0  0  0  0  0  0  0  0  0
    2.1434   -1.2375    0.0000 C   0  0  0  0  0  0  0  0  0  0  0  0
    2.1434   -0.4125    0.0000 O   0  0  0  0  0  0  0  0  0  0  0  0
    0.0000    0.0000    0.0000 C   0  0  0  0  0  0  0  0  0  0  0  0
    0.0000    0.8250    0.0000 C   0  0  0  0  0  0  0  0  0  0  0  0
    2.1434   -2.8875    0.0000 R#  0  0  0  0  0  0  0  0  0  0  0  0
    2.8579   -1.6500    0.0000 R#  0  0  0  0  0  0  0  0  0  0  0  0
  1  2  1  0
  2  3  2  0
  3  4  1  0
  4  5  2  0
  5  6  1  0
  7  6  1  1
  7  8  1  0
  8 13  1  0
  7  9  1  0
  9 14  1  0
  9 10  2  0
  5 11  1  0
 11 12  2  0
  2 12  1  0
M  RGP  2  13   1  14   2
V   13 *
V   14 *
M  END
>  <m_name>  (80) 
4-Chloro-L-phenylalanine

>  <symbol>  (80) 
Phe_4Cl

>  <m_abbr>  (80) 
Phe_4Cl

>  <m_type>  (80) 
aa

>  <m_subtype>  (80) 
non-natural

>  <m_Rgroups>  (80) 
H,OH,None,None

>  <m_RgroupIdx>  (80) 
12,13,None,None

>  <m_attachmentPointIdx>  (80) 
7,8,None,None

>  <natAnalog>  (80) 
F

>  <pdbName>  (80) 
PBJ

$$$$

     RDKit          2D

 14 14  0  0  0  0  0  0  0  0999 V2000
    0.7145    2.0625    0.0000 N   0  0  0  0  0  0  0  0  0  0  0  0
    0.7145    1.2375    0.0000 C   0  0  0  0  0  0  0  0  0  0  0  0
    1.4289    0.8250    0.0000 C   0  0  0  0  0  0  0  0  0  0  0  0
    1.4289    0.0000    0.0000 C   0  0  0  0  0  0  0  0  0  0  0  0
    0.7145   -0.4125    0.0000 C   0  0  0  0  0  0  0  0  0  0  0  0
    0.7145   -1.2375    0.0000 C   0  0  0  0  0  0  0  0  0  0  0  0
    1.4289   -1.6500    0.0000 C   0  0  0  0  0  0  0  0  0  0  0  0
    1.4289   -2.4750    0.0000 N   0  0  0  0  0  0  0  0  0  0  0  0
    2.1434   -1.2375    0.0000 C   0  0  0  0  0  0  0  0  0  0  0  0
    2.1434   -0.4125    0.0000 O   0  0  0  0  0  0  0  0  0  0  0  0
    0.0000    0.0000    0.0000 C   0  0  0  0  0  0  0  0  0  0  0  0
    0.0000    0.8250    0.0000 C   0  0  0  0  0  0  0  0  0  0  0  0
    2.1434   -2.8875    0.0000 R#  0  0  0  0  0  0  0  0  0  0  0  0
    2.8579   -1.6500    0.0000 R#  0  0  0  0  0  0  0  0  0  0  0  0
  1  2  1  0
  2  3  2  0
  3  4  1  0
  4  5  2  0
  5  6  1  0
  7  6  1  1
  7  8  1  0
  8 13  1  0
  7  9  1  0
  9 14  1  0
  9 10  2  0
  5 11  1  0
 11 12  2  0
  2 12  1  0
M  RGP  2  13   1  14   2
V   13 *
V   14 *
M  END
>  <m_name>  (81) 
p-Aminophenylalanine

>  <symbol>  (81) 
Phe_4NH2

>  <m_abbr>  (81) 
Phe_4NH2

>  <m_type>  (81) 
aa

>  <m_subtype>  (81) 
non-natural

>  <m_Rgroups>  (81) 
H,OH,None,None

>  <m_RgroupIdx>  (81) 
12,13,None,None

>  <m_attachmentPointIdx>  (81) 
7,8,None,None

>  <natAnalog>  (81) 
F

>  <pdbName>  (81) 
PD0

$$$$

     RDKit          2D

 12 12  0  0  0  0  0  0  0  0999 V2000
    0.0000    2.4750    0.0000 N   0  0  0  0  0  0  0  0  0  0  0  0
    0.7145    2.0625    0.0000 C   0  0  0  0  0  0  0  0  0  0  0  0
    1.4289    2.4750    0.0000 C   0  0  0  0  0  0  0  0  0  0  0  0
    1.4289    3.3000    0.0000 O   0  0  0  0  0  0  0  0  0  0  0  0
    0.7145    1.2375    0.0000 C   0  0  0  0  0  0  0  0  0  0  0  0
    1.4289    0.8250    0.0000 C   0  0  0  0  0  0  0  0  0  0  0  0
    1.4289    0.0000    0.0000 C   0  0  0  0  0  0  0  0  0  0  0  0
    0.7145   -0.4125    0.0000 C   0  0  0  0  0  0  0  0  0  0  0  0
    0.0000    0.0000    0.0000 C   0  0  0  0  0  0  0  0  0  0  0  0
    0.0000    0.8250    0.0000 C   0  0  0  0  0  0  0  0  0  0  0  0
    0.0000    3.3000    0.0000 R#  0  0  0  0  0  0  0  0  0  0  0  0
    2.1434    2.0625    0.0000 R#  0  0  0  0  0  0  0  0  0  0  0  0
 11  1  1  0
  2  1  1  6
  2  3  1  0
  3 12  1  0
  3  4  2  0
  2  5  1  0
  5  6  2  0
  6  7  1  0
  7  8  2  0
  8  9  1  0
  9 10  2  0
  5 10  1  0
M  RGP  2  11   1  12   2
V   11 *
V   12 *
M  END
>  <m_name>  (82) 
2-Phenylglycine

>  <symbol>  (82) 
Phg

>  <m_abbr>  (82) 
Phg

>  <m_type>  (82) 
aa

>  <m_subtype>  (82) 
non-natural

>  <m_Rgroups>  (82) 
H,OH,None,None

>  <m_RgroupIdx>  (82) 
10,11,None,None

>  <m_attachmentPointIdx>  (82) 
0,2,None,None

>  <natAnalog>  (82) 
G

>  <pdbName>  (82) 
PEN

$$$$

     RDKit          2D

 12 11  0  0  0  0  0  0  0  0999 V2000
   -0.8250   -2.8579    0.0000 C   0  0  0  0  0  0  0  0  0  0  0  0
   -0.4125   -2.1434    0.0000 C   0  0  0  0  0  0  0  0  0  0  0  0
    0.3020   -2.5559    0.0000 C   0  0  0  0  0  0  0  0  0  0  0  0
   -1.1270   -1.7309    0.0000 C   0  0  0  0  0  0  0  0  0  0  0  0
    0.0000   -1.4289    0.0000 O   0  0  0  0  0  0  0  0  0  0  0  0
    0.8250   -1.4289    0.0000 C   0  0  0  0  0  0  0  0  0  0  0  0
    1.2375   -0.7145    0.0000 C   0  0  0  0  0  0  0  0  0  0  0  0
    2.0625   -0.7145    0.0000 N   0  0  0  0  0  0  0  0  0  0  0  0
    0.8250    0.0000    0.0000 C   0  0  0  0  0  0  0  0  0  0  0  0
    0.0000    0.0000    0.0000 O   0  0  0  0  0  0  0  0  0  0  0  0
    2.4750    0.0000    0.0000 R#  0  0  0  0  0  0  0  0  0  0  0  0
    1.2375    0.7145    0.0000 R#  0  0  0  0  0  0  0  0  0  0  0  0
  1  2  1  0
  2  3  1  0
  2  4  1  0
  2  5  1  0
  5  6  1  0
  7  6  1  1
  7  8  1  0
  8 11  1  0
  7  9  1  0
  9 12  1  0
  9 10  2  0
M  RGP  2  11   1  12   2
V   11 *
V   12 *
M  END
>  <m_name>  (83) 
O-tert-Butyl-L-serine

>  <symbol>  (83) 
Ser_tBu

>  <m_abbr>  (83) 
Ser_tBu

>  <m_type>  (83) 
aa

>  <m_subtype>  (83) 
non-natural

>  <m_Rgroups>  (83) 
H,OH,None,None

>  <m_RgroupIdx>  (83) 
10,11,None,None

>  <m_attachmentPointIdx>  (83) 
7,8,None,None

>  <natAnalog>  (83) 
S

>  <pdbName>  (83) 
SED

$$$$

     RDKit          2D

 21 22  0  0  0  0  0  0  0  0999 V2000
    0.7145   -0.4125    0.0000 N   0  0  0  0  0  0  0  0  0  0  0  0
    0.7145   -1.2375    0.0000 C   0  0  0  0  0  0  0  0  0  0  0  0
    1.4289   -1.6500    0.0000 C   0  0  0  0  0  0  0  0  0  0  0  0
    1.4289   -2.4750    0.0000 C   0  0  0  0  0  0  0  0  0  0  0  0
    2.1434   -2.8875    0.0000 C   0  0  0  0  0  0  0  0  0  0  0  0
    2.1434   -3.7125    0.0000 C   0  0  0  0  0  0  0  0  0  0  0  0
    1.4289   -4.1250    0.0000 C   0  0  0  0  0  0  0  0  0  0  0  0
    1.4289   -4.9500    0.0000 O   0  0  0  0  0  0  0  0  0  0  0  0
    2.1434   -5.3625    0.0000 C   0  0  0  0  0  0  0  0  0  0  0  0
    2.1434   -6.1875    0.0000 C   0  0  0  0  0  0  0  0  0  0  0  0
    2.8579   -6.6000    0.0000 C   0  0  0  0  0  0  0  0  0  0  0  0
    2.8579   -7.4250    0.0000 C   0  0  0  0  0  0  0  0  0  0  0  0
    2.1434   -7.8375    0.0000 C   0  0  0  0  0  0  0  0  0  0  0  0
    1.4289   -7.4250    0.0000 C   0  0  0  0  0  0  0  0  0  0  0  0
    1.4289   -6.6000    0.0000 C   0  0  0  0  0  0  0  0  0  0  0  0
    0.7145   -3.7125    0.0000 C   0  0  0  0  0  0  0  0  0  0  0  0
    0.7145   -2.8875    0.0000 C   0  0  0  0  0  0  0  0  0  0  0  0
    0.0000   -1.6500    0.0000 C   0  0  0  0  0  0  0  0  0  0  0  0
   -0.7145   -1.2375    0.0000 O   0  0  0  0  0  0  0  0  0  0  0  0
    0.0000    0.0000    0.0000 R#  0  0  0  0  0  0  0  0  0  0  0  0
    0.0000   -2.4750    0.0000 R#  0  0  0  0  0  0  0  0  0  0  0  0
 20  1  1  0
  2  1  1  0
  2  3  1  1
  3  4  1  0
  4  5  2  0
  5  6  1  0
  6  7  2  0
  7  8  1  0
  8  9  1  0
  9 10  1  0
 10 11  2  0
 11 12  1  0
 12 13  2  0
 13 14  1  0
 14 15  2  0
 10 15  1  0
  7 16  1  0
 16 17  2  0
  4 17  1  0
  2 18  1  0
 18 21  1  0
 18 19  2  0
M  RGP  2  20   1  21   2
V   20 *
V   21 *
M  END
>  <m_name>  (84) 
O-Benzyl-L-tyrosine

>  <symbol>  (84) 
Tyr_Bn

>  <m_abbr>  (84) 
Tyr_Bn

>  <m_type>  (84) 
aa

>  <m_subtype>  (84) 
non-natural

>  <m_Rgroups>  (84) 
H,OH,None,None

>  <m_RgroupIdx>  (84) 
19,20,None,None

>  <m_attachmentPointIdx>  (84) 
0,17,None,None

>  <natAnalog>  (84) 
Y

>  <pdbName>  (84) 
TYH

$$$$

     RDKit          2D

 12 12  0  0  0  0  0  0  0  0999 V2000
   -0.1467    3.1768    0.0000 N   0  0  0  0  0  0  0  0  0  0  0  0
   -0.1467    2.3518    0.0000 C   0  0  0  0  0  0  0  0  0  0  0  0
    0.5678    1.9393    0.0000 C   0  0  0  0  0  0  0  0  0  0  0  0
    0.5678    1.1143    0.0000 C   0  0  0  0  0  0  0  0  0  0  0  0
    1.2352    0.6294    0.0000 C   0  0  0  0  0  0  0  0  0  0  0  0
    0.9803   -0.1553    0.0000 S   0  0  0  0  0  0  0  0  0  0  0  0
    0.1553   -0.1553    0.0000 C   0  0  0  0  0  0  0  0  0  0  0  0
   -0.0997    0.6294    0.0000 N   0  0  0  0  0  0  0  0  0  0  0  0
   -0.8612    1.9393    0.0000 C   0  0  0  0  0  0  0  0  0  0  0  0
   -1.5757    2.3518    0.0000 O   0  0  0  0  0  0  0  0  0  0  0  0
   -0.8612    3.5893    0.0000 R#  0  0  0  0  0  0  0  0  0  0  0  0
   -0.8612    1.1143    0.0000 R#  0  0  0  0  0  0  0  0  0  0  0  0
 11  1  1  0
  2  1  1  0
  2  3  1  1
  3  4  1  0
  4  5  2  0
  5  6  1  0
  6  7  1  0
  7  8  2  0
  4  8  1  0
  2  9  1  0
  9 12  1  0
  9 10  2  0
M  RGP  2  11   1  12   2
V   11 *
V   12 *
M  END
>  <m_name>  (85) 
3-Thiazolylalanine

>  <symbol>  (85) 
Tza

>  <m_abbr>  (85) 
Tza

>  <m_type>  (85) 
aa

>  <m_subtype>  (85) 
non-natural

>  <m_Rgroups>  (85) 
H,OH,None,None

>  <m_RgroupIdx>  (85) 
10,11,None,None

>  <m_attachmentPointIdx>  (85) 
0,8,None,None

>  <natAnalog>  (85) 
A

>  <pdbName>  (85) 
TZI

$$$$

     RDKit          2D

 17 18  0  0  0  0  0  0  0  0999 V2000
    0.7145   -3.7125    0.0000 N   0  0  0  0  0  0  0  0  0  0  0  0
    0.7145   -2.8875    0.0000 C   0  0  0  0  0  0  0  0  0  0  0  0
    1.4289   -2.4750    0.0000 C   0  0  0  0  0  0  0  0  0  0  0  0
    1.4289   -1.6500    0.0000 C   0  0  0  0  0  0  0  0  0  0  0  0
    0.7145   -1.2375    0.0000 C   0  0  0  0  0  0  0  0  0  0  0  0
    0.7145   -0.4125    0.0000 C   0  0  0  0  0  0  0  0  0  0  0  0
    1.4289    0.0000    0.0000 C   0  0  0  0  0  0  0  0  0  0  0  0
    2.1434   -0.4125    0.0000 C   0  0  0  0  0  0  0  0  0  0  0  0
    2.8579    0.0000    0.0000 C   0  0  0  0  0  0  0  0  0  0  0  0
    3.5724   -0.4125    0.0000 C   0  0  0  0  0  0  0  0  0  0  0  0
    3.5724   -1.2375    0.0000 C   0  0  0  0  0  0  0  0  0  0  0  0
    2.8579   -1.6500    0.0000 C   0  0  0  0  0  0  0  0  0  0  0  0
    2.1434   -1.2375    0.0000 C   0  0  0  0  0  0  0  0  0  0  0  0
    0.0000   -2.4750    0.0000 C   0  0  0  0  0  0  0  0  0  0  0  0
   -0.7145   -2.8875    0.0000 O   0  0  0  0  0  0  0  0  0  0  0  0
    0.0000   -4.1250    0.0000 R#  0  0  0  0  0  0  0  0  0  0  0  0
    0.0000   -1.6500    0.0000 R#  0  0  0  0  0  0  0  0  0  0  0  0
 16  1  1  0
  2  1  1  0
  2  3  1  6
  3  4  1  0
  4  5  2  0
  5  6  1  0
  6  7  2  0
  7  8  1  0
  8  9  2  0
  9 10  1  0
 10 11  2  0
 11 12  1  0
 12 13  2  0
  4 13  1  0
  8 13  1  0
  2 14  1  0
 14 17  1  0
 14 15  2  0
M  RGP  2  16   1  17   2
V   16 *
V   17 *
M  END
>  <m_name>  (86) 
3-(1-naphthyl)-alanine

>  <symbol>  (86) 
1Nal

>  <m_abbr>  (86) 
1Nal

>  <m_type>  (86) 
aa

>  <m_subtype>  (86) 
non-natural

>  <m_Rgroups>  (86) 
H,OH,None,None

>  <m_RgroupIdx>  (86) 
15,16,None,None

>  <m_attachmentPointIdx>  (86) 
0,13,None,None

>  <natAnalog>  (86) 
A

>  <pdbName>  (86) 
1NC

$$$$

     RDKit          2D

 13 13  0  0  0  0  0  0  0  0999 V2000
    0.0000    3.3000    0.0000 N   0  0  0  0  0  0  0  0  0  0  0  0
    0.0000    2.4750    0.0000 C   0  0  0  0  0  0  0  0  0  0  0  0
    0.7145    2.0625    0.0000 C   0  0  0  0  0  0  0  0  0  0  0  0
    0.7145    1.2375    0.0000 C   0  0  0  0  0  0  0  0  0  0  0  0
    1.4289    0.8250    0.0000 C   0  0  0  0  0  0  0  0  0  0  0  0
    1.4289    0.0000    0.0000 C   0  0  0  0  0  0  0  0  0  0  0  0
    0.7145   -0.4125    0.0000 C   0  0  0  0  0  0  0  0  0  0  0  0
    0.0000    0.0000    0.0000 C   0  0  0  0  0  0  0  0  0  0  0  0
    0.0000    0.8250    0.0000 C   0  0  0  0  0  0  0  0  0  0  0  0
   -0.7145    2.0625    0.0000 C   0  0  0  0  0  0  0  0  0  0  0  0
   -1.4289    2.4750    0.0000 O   0  0  0  0  0  0  0  0  0  0  0  0
   -0.7145    3.7125    0.0000 R#  0  0  0  0  0  0  0  0  0  0  0  0
   -0.7145    1.2375    0.0000 R#  0  0  0  0  0  0  0  0  0  0  0  0
 12  1  1  0
  2  1  1  0
  2  3  1  1
  3  4  1  0
  4  5  1  0
  5  6  1  0
  6  7  1  0
  7  8  1  0
  8  9  1  0
  4  9  1  0
  2 10  1  0
 10 13  1  0
 10 11  2  0
M  RGP  2  12   1  13   2
V   12 *
V   13 *
M  END
>  <m_name>  (87) 
3-Cyclohexylalanine

>  <symbol>  (87) 
Cha

>  <m_abbr>  (87) 
Cha

>  <m_type>  (87) 
aa

>  <m_subtype>  (87) 
non-natural

>  <m_Rgroups>  (87) 
H,OH,None,None

>  <m_RgroupIdx>  (87) 
11,12,None,None

>  <m_attachmentPointIdx>  (87) 
0,9,None,None

>  <natAnalog>  (87) 
A

>  <pdbName>  (87) 
CHE

$$$$

     RDKit          2D

 18 17  0  0  0  0  0  0  0  0999 V2000
   -1.1929   -1.8573    0.0000 C   0  0  0  0  0  0  0  0  0  0  0  0
   -0.6528   -2.4810    0.0000 C   0  0  0  0  0  0  0  0  0  0  0  0
   -1.2765   -3.0211    0.0000 C   0  0  0  0  0  0  0  0  0  0  0  0
   -0.0292   -1.9409    0.0000 C   0  0  0  0  0  0  0  0  0  0  0  0
   -0.1127   -3.1046    0.0000 O   0  0  0  0  0  0  0  0  0  0  0  0
    0.6974   -2.9487    0.0000 C   0  0  0  0  0  0  0  0  0  0  0  0
    0.9675   -2.1692    0.0000 O   0  0  0  0  0  0  0  0  0  0  0  0
    1.2375   -3.5724    0.0000 N   0  0  0  0  0  0  0  0  0  0  0  0
    2.0476   -3.4164    0.0000 C   0  0  0  0  0  0  0  0  0  0  0  0
    2.5877   -4.0401    0.0000 C   0  0  0  0  0  0  0  0  0  0  0  0
    3.3979   -3.8842    0.0000 C   0  0  0  0  0  0  0  0  0  0  0  0
    3.9379   -4.5078    0.0000 C   0  0  0  0  0  0  0  0  0  0  0  0
    4.7481   -4.3519    0.0000 C   0  0  0  0  0  0  0  0  0  0  0  0
    5.2882   -4.9755    0.0000 N   0  0  0  0  0  0  0  0  0  0  0  0
    5.0181   -3.5724    0.0000 C   0  0  0  0  0  0  0  0  0  0  0  0
    5.8283   -3.4164    0.0000 O   0  0  0  0  0  0  0  0  0  0  0  0
    6.0983   -4.8196    0.0000 R#  0  0  0  0  0  0  0  0  0  0  0  0
    4.4780   -2.9487    0.0000 R#  0  0  0  0  0  0  0  0  0  0  0  0
  1  2  1  0
  2  3  1  0
  2  4  1  0
  2  5  1  0
  5  6  1  0
  6  7  2  0
  6  8  1  0
  8  9  1  0
  9 10  1  0
 10 11  1  0
 11 12  1  0
 13 12  1  1
 13 14  1  0
 14 17  1  0
 13 15  1  0
 15 18  1  0
 15 16  2  0
M  RGP  2  17   1  18   2
V   17 *
V   18 *
M  END
>  <m_name>  (88) 
N-epsilon-tert-Boc-L-lysine

>  <symbol>  (88) 
Lys_Boc

>  <m_abbr>  (88) 
Lys_Boc

>  <m_type>  (88) 
aa

>  <m_subtype>  (88) 
non-natural

>  <m_Rgroups>  (88) 
H,OH,None,None

>  <m_RgroupIdx>  (88) 
16,17,None,None

>  <m_attachmentPointIdx>  (88) 
13,14,None,None

>  <natAnalog>  (88) 
K

>  <pdbName>  (88) 
LYI

$$$$

     RDKit          2D

  9  8  0  0  0  0  0  0  0  0999 V2000
    0.0000   -1.4289    0.0000 C   0  0  0  0  0  0  0  0  0  0  0  0
    0.8250   -1.4289    0.0000 C   0  0  0  0  0  0  0  0  0  0  0  0
    1.2375   -2.1434    0.0000 O   0  0  0  0  0  0  0  0  0  0  0  0
    1.2375   -0.7145    0.0000 C   0  0  0  0  0  0  0  0  0  0  0  0
    2.0625   -0.7145    0.0000 N   0  0  0  0  0  0  0  0  0  0  0  0
    0.8250    0.0000    0.0000 C   0  0  0  0  0  0  0  0  0  0  0  0
    0.0000    0.0000    0.0000 O   0  0  0  0  0  0  0  0  0  0  0  0
    2.4750    0.0000    0.0000 R#  0  0  0  0  0  0  0  0  0  0  0  0
    1.2375    0.7145    0.0000 R#  0  0  0  0  0  0  0  0  0  0  0  0
  2  1  1  1
  2  3  1  0
  2  4  1  0
  4  5  1  1
  5  8  1  0
  4  6  1  0
  6  9  1  0
  6  7  2  0
M  RGP  2   8   1   9   2
V    8 *
V    9 *
M  END
>  <m_name>  (89) 
L-allo-Threonine

>  <symbol>  (89) 
aThr

>  <m_abbr>  (89) 
aThr

>  <m_type>  (89) 
aa

>  <m_subtype>  (89) 
non-natural

>  <m_Rgroups>  (89) 
H,OH,None,None

>  <m_RgroupIdx>  (89) 
7,8,None,None

>  <m_attachmentPointIdx>  (89) 
4,5,None,None

>  <natAnalog>  (89) 
T

>  <pdbName>  (89) 
ATB

$$$$

     RDKit          2D

 17 18  0  0  0  0  0  0  0  0999 V2000
   -0.7145   -2.8875    0.0000 N   0  0  0  0  0  0  0  0  0  0  0  0
    0.0000   -2.4750    0.0000 C   0  0  0  0  0  0  0  0  0  0  0  0
    0.0000   -1.6500    0.0000 C   0  0  0  0  0  0  0  0  0  0  0  0
    0.7145   -1.2375    0.0000 C   0  0  0  0  0  0  0  0  0  0  0  0
    0.7145   -0.4125    0.0000 C   0  0  0  0  0  0  0  0  0  0  0  0
    1.4289    0.0000    0.0000 C   0  0  0  0  0  0  0  0  0  0  0  0
    2.1434   -0.4125    0.0000 C   0  0  0  0  0  0  0  0  0  0  0  0
    2.8579    0.0000    0.0000 C   0  0  0  0  0  0  0  0  0  0  0  0
    3.5724   -0.4125    0.0000 C   0  0  0  0  0  0  0  0  0  0  0  0
    3.5724   -1.2375    0.0000 C   0  0  0  0  0  0  0  0  0  0  0  0
    2.8579   -1.6500    0.0000 C   0  0  0  0  0  0  0  0  0  0  0  0
    2.1434   -1.2375    0.0000 C   0  0  0  0  0  0  0  0  0  0  0  0
    1.4289   -1.6500    0.0000 C   0  0  0  0  0  0  0  0  0  0  0  0
    0.7145   -2.8875    0.0000 C   0  0  0  0  0  0  0  0  0  0  0  0
    0.7145   -3.7125    0.0000 O   0  0  0  0  0  0  0  0  0  0  0  0
   -0.7145   -3.7125    0.0000 R#  0  0  0  0  0  0  0  0  0  0  0  0
    1.4289   -2.4750    0.0000 R#  0  0  0  0  0  0  0  0  0  0  0  0
 16  1  1  0
  2  1  1  0
  2  3  1  6
  3  4  1  0
  4  5  2  0
  5  6  1  0
  6  7  2  0
  7  8  1  0
  8  9  2  0
  9 10  1  0
 10 11  2  0
 11 12  1  0
  7 12  1  0
 12 13  2  0
  4 13  1  0
  2 14  1  0
 14 17  1  0
 14 15  2  0
M  RGP  2  16   1  17   2
V   16 *
V   17 *
M  END
>  <m_name>  (90) 
D-3-naphthylalanine

>  <symbol>  (90) 
D_2Nal

>  <m_abbr>  (90) 
D_2Nal

>  <m_type>  (90) 
aa

>  <m_subtype>  (90) 
non-natural

>  <m_Rgroups>  (90) 
H,OH,None,None

>  <m_RgroupIdx>  (90) 
15,16,None,None

>  <m_attachmentPointIdx>  (90) 
0,13,None,None

>  <natAnalog>  (90) 
A

>  <pdbName>  (90) 
D2I

$$$$

     RDKit          2D

 12 12  0  0  0  0  0  0  0  0999 V2000
   -0.1467    3.1768    0.0000 N   0  0  0  0  0  0  0  0  0  0  0  0
   -0.1467    2.3518    0.0000 C   0  0  0  0  0  0  0  0  0  0  0  0
    0.5678    1.9393    0.0000 C   0  0  0  0  0  0  0  0  0  0  0  0
    0.5678    1.1143    0.0000 C   0  0  0  0  0  0  0  0  0  0  0  0
    1.2352    0.6294    0.0000 C   0  0  0  0  0  0  0  0  0  0  0  0
    0.9803   -0.1553    0.0000 C   0  0  0  0  0  0  0  0  0  0  0  0
    0.1553   -0.1553    0.0000 C   0  0  0  0  0  0  0  0  0  0  0  0
   -0.0997    0.6294    0.0000 S   0  0  0  0  0  0  0  0  0  0  0  0
   -0.8612    1.9393    0.0000 C   0  0  0  0  0  0  0  0  0  0  0  0
   -1.5757    2.3518    0.0000 O   0  0  0  0  0  0  0  0  0  0  0  0
   -0.8612    3.5893    0.0000 R#  0  0  0  0  0  0  0  0  0  0  0  0
   -0.8612    1.1143    0.0000 R#  0  0  0  0  0  0  0  0  0  0  0  0
 11  1  1  0
  2  1  1  0
  2  3  1  6
  3  4  1  0
  4  5  2  0
  5  6  1  0
  6  7  2  0
  7  8  1  0
  4  8  1  0
  2  9  1  0
  9 12  1  0
  9 10  2  0
M  RGP  2  11   1  12   2
V   11 *
V   12 *
M  END
>  <m_name>  (91) 
D-3-thienylalanine

>  <symbol>  (91) 
D_2Thi

>  <m_abbr>  (91) 
D_2Thi

>  <m_type>  (91) 
aa

>  <m_subtype>  (91) 
non-natural

>  <m_Rgroups>  (91) 
H,OH,None,None

>  <m_RgroupIdx>  (91) 
10,11,None,None

>  <m_attachmentPointIdx>  (91) 
0,8,None,None

>  <natAnalog>  (91) 
A

>  <pdbName>  (91) 
DJA

$$$$

     RDKit          2D

 10 10  0  0  0  0  0  0  0  0999 V2000
    0.5678    1.9393    0.0000 O   0  0  0  0  0  0  0  0  0  0  0  0
    0.5678    1.1143    0.0000 C   0  0  0  0  0  0  0  0  0  0  0  0
    1.2352    0.6294    0.0000 C   0  0  0  0  0  0  0  0  0  0  0  0
    0.9803   -0.1553    0.0000 C   0  0  0  0  0  0  0  0  0  0  0  0
    0.1553   -0.1553    0.0000 N   0  0  0  0  0  0  0  0  0  0  0  0
   -0.0997    0.6294    0.0000 C   0  0  0  0  0  0  0  0  0  0  0  0
    1.4652   -0.8227    0.0000 C   0  0  0  0  0  0  0  0  0  0  0  0
    1.1296   -1.5764    0.0000 O   0  0  0  0  0  0  0  0  0  0  0  0
   -0.3297   -0.8227    0.0000 R#  0  0  0  0  0  0  0  0  0  0  0  0
    2.2857   -0.7365    0.0000 R#  0  0  0  0  0  0  0  0  0  0  0  0
  2  1  1  6
  2  3  1  0
  4  3  1  0
  4  5  1  0
  5  9  1  0
  5  6  1  0
  2  6  1  0
  4  7  1  6
  7 10  1  0
  7  8  2  0
M  RGP  2   9   1  10   2
V    9 *
V   10 *
M  END
>  <m_name>  (92) 
D-allo-4-hydroxyproline

>  <symbol>  (92) 
D_aHyp

>  <m_abbr>  (92) 
D_aHyp

>  <m_type>  (92) 
aa

>  <m_subtype>  (92) 
non-natural

>  <m_Rgroups>  (92) 
H,OH,None,None

>  <m_RgroupIdx>  (92) 
8,9,None,None

>  <m_attachmentPointIdx>  (92) 
4,6,None,None

>  <natAnalog>  (92) 
P

>  <pdbName>  (92) 
DJG

$$$$

     RDKit          2D

 10  9  0  0  0  0  0  0  0  0999 V2000
    0.5230    0.5230    0.0000 C   0  0  0  0  0  0  0  0  0  0  0  0
    1.2375    0.1105    0.0000 C   0  0  0  0  0  0  0  0  0  0  0  0
    1.2375   -0.7145    0.0000 C   0  0  0  0  0  0  0  0  0  0  0  0
    0.5230   -1.1270    0.0000 C   0  0  0  0  0  0  0  0  0  0  0  0
    1.9520   -1.1270    0.0000 C   0  0  0  0  0  0  0  0  0  0  0  0
    1.9520   -1.9520    0.0000 N   0  0  0  0  0  0  0  0  0  0  0  0
    2.6664   -0.7145    0.0000 C   0  0  0  0  0  0  0  0  0  0  0  0
    3.3809   -1.1270    0.0000 O   0  0  0  0  0  0  0  0  0  0  0  0
    2.6664   -2.3645    0.0000 R#  0  0  0  0  0  0  0  0  0  0  0  0
    2.6664    0.1105    0.0000 R#  0  0  0  0  0  0  0  0  0  0  0  0
  1  2  1  0
  3  2  1  0
  3  4  1  1
  3  5  1  0
  5  6  1  6
  6  9  1  0
  5  7  1  0
  7 10  1  0
  7  8  2  0
M  RGP  2   9   1  10   2
V    9 *
V   10 *
M  END
>  <m_name>  (93) 
D-allo-Isoleucine

>  <symbol>  (93) 
D_aIle

>  <m_abbr>  (93) 
D_aIle

>  <m_type>  (93) 
aa

>  <m_subtype>  (93) 
non-natural

>  <m_Rgroups>  (93) 
H,OH,None,None

>  <m_RgroupIdx>  (93) 
8,9,None,None

>  <m_attachmentPointIdx>  (93) 
5,6,None,None

>  <natAnalog>  (93) 
I

>  <pdbName>  (93) 
DJI

$$$$

     RDKit          2D

 12 12  0  0  0  0  0  0  0  0999 V2000
    0.0000    2.4750    0.0000 N   0  0  0  0  0  0  0  0  0  0  0  0
    0.7145    2.0625    0.0000 C   0  0  0  0  0  0  0  0  0  0  0  0
    1.4289    2.4750    0.0000 C   0  0  0  0  0  0  0  0  0  0  0  0
    1.4289    3.3000    0.0000 O   0  0  0  0  0  0  0  0  0  0  0  0
    0.7145    1.2375    0.0000 C   0  0  0  0  0  0  0  0  0  0  0  0
    1.4289    0.8250    0.0000 C   0  0  0  0  0  0  0  0  0  0  0  0
    1.4289    0.0000    0.0000 C   0  0  0  0  0  0  0  0  0  0  0  0
    0.7145   -0.4125    0.0000 C   0  0  0  0  0  0  0  0  0  0  0  0
    0.0000    0.0000    0.0000 C   0  0  0  0  0  0  0  0  0  0  0  0
    0.0000    0.8250    0.0000 C   0  0  0  0  0  0  0  0  0  0  0  0
    0.0000    3.3000    0.0000 R#  0  0  0  0  0  0  0  0  0  0  0  0
    2.1434    2.0625    0.0000 R#  0  0  0  0  0  0  0  0  0  0  0  0
 11  1  1  0
  2  1  1  1
  2  3  1  0
  3 12  1  0
  3  4  2  0
  2  5  1  0
  5  6  2  0
  6  7  1  0
  7  8  2  0
  8  9  1  0
  9 10  2  0
  5 10  1  0
M  RGP  2  11   1  12   2
V   11 *
V   12 *
M  END
>  <m_name>  (94) 
D-2-phenylglycine

>  <symbol>  (94) 
D_Phg

>  <m_abbr>  (94) 
D_Phg

>  <m_type>  (94) 
aa

>  <m_subtype>  (94) 
non-natural

>  <m_Rgroups>  (94) 
H,OH,None,None

>  <m_RgroupIdx>  (94) 
10,11,None,None

>  <m_attachmentPointIdx>  (94) 
0,2,None,None

>  <natAnalog>  (94) 
G

>  <pdbName>  (94) 
DJ5

$$$$

     RDKit          2D

 12 11  0  0  0  0  0  0  0  0999 V2000
   -0.8250   -2.8579    0.0000 C   0  0  0  0  0  0  0  0  0  0  0  0
   -0.4125   -2.1434    0.0000 C   0  0  0  0  0  0  0  0  0  0  0  0
    0.3020   -2.5559    0.0000 C   0  0  0  0  0  0  0  0  0  0  0  0
   -1.1270   -1.7309    0.0000 C   0  0  0  0  0  0  0  0  0  0  0  0
    0.0000   -1.4289    0.0000 O   0  0  0  0  0  0  0  0  0  0  0  0
    0.8250   -1.4289    0.0000 C   0  0  0  0  0  0  0  0  0  0  0  0
    1.2375   -0.7145    0.0000 C   0  0  0  0  0  0  0  0  0  0  0  0
    2.0625   -0.7145    0.0000 N   0  0  0  0  0  0  0  0  0  0  0  0
    0.8250    0.0000    0.0000 C   0  0  0  0  0  0  0  0  0  0  0  0
    0.0000    0.0000    0.0000 O   0  0  0  0  0  0  0  0  0  0  0  0
    2.4750    0.0000    0.0000 R#  0  0  0  0  0  0  0  0  0  0  0  0
    1.2375    0.7145    0.0000 R#  0  0  0  0  0  0  0  0  0  0  0  0
  1  2  1  0
  2  3  1  0
  2  4  1  0
  2  5  1  0
  5  6  1  0
  7  6  1  6
  7  8  1  0
  8 11  1  0
  7  9  1  0
  9 12  1  0
  9 10  2  0
M  RGP  2  11   1  12   2
V   11 *
V   12 *
M  END
>  <m_name>  (95) 
O-tert-Butyl-D-serine

>  <symbol>  (95) 
D_Ser_tBu

>  <m_abbr>  (95) 
D_Ser_tBu

>  <m_type>  (95) 
aa

>  <m_subtype>  (95) 
non-natural

>  <m_Rgroups>  (95) 
H,OH,None,None

>  <m_RgroupIdx>  (95) 
10,11,None,None

>  <m_attachmentPointIdx>  (95) 
7,8,None,None

>  <natAnalog>  (95) 
S

>  <pdbName>  (95) 
DJ7

$$$$

     RDKit          2D

 11 10  0  0  0  0  0  0  0  0999 V2000
   -0.8250   -1.4289    0.0000 O   0  0  0  0  0  0  0  0  0  0  0  0
    0.0000   -1.4289    0.0000 S   0  0  0  0  0  0  0  0  0  0  0  0
    0.0000   -2.2539    0.0000 O   0  0  0  0  0  0  0  0  0  0  0  0
    0.0000   -0.6039    0.0000 O   0  0  0  0  0  0  0  0  0  0  0  0
    0.8250   -1.4289    0.0000 C   0  0  0  0  0  0  0  0  0  0  0  0
    1.2375   -0.7145    0.0000 C   0  0  0  0  0  0  0  0  0  0  0  0
    2.0625   -0.7145    0.0000 N   0  0  0  0  0  0  0  0  0  0  0  0
    0.8250    0.0000    0.0000 C   0  0  0  0  0  0  0  0  0  0  0  0
    0.0000    0.0000    0.0000 O   0  0  0  0  0  0  0  0  0  0  0  0
    2.4750    0.0000    0.0000 R#  0  0  0  0  0  0  0  0  0  0  0  0
    1.2375    0.7145    0.0000 R#  0  0  0  0  0  0  0  0  0  0  0  0
  1  2  1  0
  2  3  2  0
  2  4  2  0
  2  5  1  0
  6  5  1  1
  6  7  1  0
  7 10  1  0
  6  8  1  0
  8 11  1  0
  8  9  2  0
M  RGP  2  10   1  11   2
V   10 *
V   11 *
M  END
>  <m_name>  (96) 
3-Sulfoalanine

>  <symbol>  (96) 
Cya

>  <m_abbr>  (96) 
Cya

>  <m_type>  (96) 
aa

>  <m_subtype>  (96) 
non-natural

>  <m_Rgroups>  (96) 
H,OH,None,None

>  <m_RgroupIdx>  (96) 
9,10,None,None

>  <m_attachmentPointIdx>  (96) 
6,7,None,None

>  <natAnalog>  (96) 
A

>  <pdbName>  (96) 
CY2

$$$$

     RDKit          2D

 14 13  0  0  0  0  0  0  0  0999 V2000
   -0.9059    2.1730    0.0000 C   0  0  0  0  0  0  0  0  0  0  0  0
   -0.1914    1.7605    0.0000 N   0  0  0  0  0  0  0  0  0  0  0  0
   -0.6039    1.0461    0.0000 C   0  0  0  0  0  0  0  0  0  0  0  0
    0.2211    2.4750    0.0000 C   0  0  0  0  0  0  0  0  0  0  0  0
    0.5230    1.3480    0.0000 C   0  0  0  0  0  0  0  0  0  0  0  0
    0.5230    0.5230    0.0000 C   0  0  0  0  0  0  0  0  0  0  0  0
    1.2375    0.1105    0.0000 C   0  0  0  0  0  0  0  0  0  0  0  0
    1.2375   -0.7145    0.0000 C   0  0  0  0  0  0  0  0  0  0  0  0
    1.9520   -1.1270    0.0000 C   0  0  0  0  0  0  0  0  0  0  0  0
    1.9520   -1.9520    0.0000 N   0  0  0  0  0  0  0  0  0  0  0  0
    2.6664   -0.7145    0.0000 C   0  0  0  0  0  0  0  0  0  0  0  0
    3.3809   -1.1270    0.0000 O   0  0  0  0  0  0  0  0  0  0  0  0
    2.6664   -2.3645    0.0000 R#  0  0  0  0  0  0  0  0  0  0  0  0
    2.6664    0.1105    0.0000 R#  0  0  0  0  0  0  0  0  0  0  0  0
  1  2  1  0
  2  3  1  0
  2  4  1  0
  2  5  1  0
  5  6  1  0
  6  7  1  0
  7  8  1  0
  9  8  1  1
  9 10  1  0
 10 13  1  0
  9 11  1  0
 11 14  1  0
 11 12  2  0
M  CHG  1   2   1
M  RGP  2  13   1  14   2
V   13 *
V   14 *
M  END
>  <m_name>  (97) 
Epsilon-N-trimethyllysine

>  <symbol>  (97) 
Lys_Me3

>  <m_abbr>  (97) 
Lys_Me3

>  <m_type>  (97) 
aa

>  <m_subtype>  (97) 
non-natural

>  <m_Rgroups>  (97) 
H,OH,None,None

>  <m_RgroupIdx>  (97) 
12,13,None,None

>  <m_attachmentPointIdx>  (97) 
9,10,None,None

>  <natAnalog>  (97) 
K

>  <pdbName>  (97) 
LYY

$$$$

     RDKit          2D

 11 10  0  0  0  0  0  0  0  0999 V2000
    1.6500    0.0000    0.0000 C   0  0  0  0  0  0  0  0  0  0  0  0
    1.2375    0.7145    0.0000 C   0  0  0  0  0  0  0  0  0  0  0  0
    0.8250    1.4289    0.0000 C   0  0  0  0  0  0  0  0  0  0  0  0
    0.5230    0.3020    0.0000 S   0  0  0  0  0  0  0  0  0  0  0  0
    1.9520    1.1270    0.0000 C   0  0  0  0  0  0  0  0  0  0  0  0
    2.6664    0.7145    0.0000 N   0  0  0  0  0  0  0  0  0  0  0  0
    1.9520    1.9520    0.0000 C   0  0  0  0  0  0  0  0  0  0  0  0
    1.2375    2.3645    0.0000 O   0  0  0  0  0  0  0  0  0  0  0  0
   -0.1914    0.7145    0.0000 R#  0  0  0  0  0  0  0  0  0  0  0  0
    3.3809    1.1270    0.0000 R#  0  0  0  0  0  0  0  0  0  0  0  0
    2.6664    2.3645    0.0000 R#  0  0  0  0  0  0  0  0  0  0  0  0
  1  2  1  0
  2  3  1  0
  2  4  1  0
  4  9  1  0
  5  2  1  0
  5  6  1  1
  6 10  1  0
  5  7  1  0
  7 11  1  0
  7  8  2  0
M  RGP  3   9   3  10   1  11   2
V    9 *
V   10 *
V   11 *
M  END
>  <m_name>  (98) 
Penicillamine (3-mercaptovaline)

>  <symbol>  (98) 
Pen

>  <m_abbr>  (98) 
Pen

>  <m_type>  (98) 
aa

>  <m_subtype>  (98) 
non-natural

>  <m_Rgroups>  (98) 
H,OH,H,None

>  <m_RgroupIdx>  (98) 
9,10,8,None

>  <m_attachmentPointIdx>  (98) 
5,6,3,None

>  <natAnalog>  (98) 
V

>  <pdbName>  (98) 
PES

$$$$

     RDKit          2D

 14 14  0  0  0  0  0  0  0  0999 V2000
    0.7145    2.0625    0.0000 C   0  0  0  0  0  0  0  0  0  0  0  0
    0.7145    1.2375    0.0000 C   0  0  0  0  0  0  0  0  0  0  0  0
    1.4289    0.8250    0.0000 C   0  0  0  0  0  0  0  0  0  0  0  0
    1.4289    0.0000    0.0000 C   0  0  0  0  0  0  0  0  0  0  0  0
    0.7145   -0.4125    0.0000 C   0  0  0  0  0  0  0  0  0  0  0  0
    0.7145   -1.2375    0.0000 C   0  0  0  0  0  0  0  0  0  0  0  0
    1.4289   -1.6500    0.0000 C   0  0  0  0  0  0  0  0  0  0  0  0
    1.4289   -2.4750    0.0000 N   0  0  0  0  0  0  0  0  0  0  0  0
    2.1434   -1.2375    0.0000 C   0  0  0  0  0  0  0  0  0  0  0  0
    2.1434   -0.4125    0.0000 O   0  0  0  0  0  0  0  0  0  0  0  0
    0.0000    0.0000    0.0000 C   0  0  0  0  0  0  0  0  0  0  0  0
    0.0000    0.8250    0.0000 C   0  0  0  0  0  0  0  0  0  0  0  0
    2.1434   -2.8875    0.0000 R#  0  0  0  0  0  0  0  0  0  0  0  0
    2.8579   -1.6500    0.0000 R#  0  0  0  0  0  0  0  0  0  0  0  0
  1  2  1  0
  2  3  2  0
  3  4  1  0
  4  5  2  0
  5  6  1  0
  7  6  1  1
  7  8  1  0
  8 13  1  0
  7  9  1  0
  9 14  1  0
  9 10  2  0
  5 11  1  0
 11 12  2  0
  2 12  1  0
M  RGP  2  13   1  14   2
V   13 *
V   14 *
M  END
>  <m_name>  (99) 
p-Methylphenylalanine

>  <symbol>  (99) 
Phe_4Me

>  <m_abbr>  (99) 
Phe_4Me

>  <m_type>  (99) 
aa

>  <m_subtype>  (99) 
non-natural

>  <m_Rgroups>  (99) 
H,OH,None,None

>  <m_RgroupIdx>  (99) 
12,13,None,None

>  <m_attachmentPointIdx>  (99) 
7,8,None,None

>  <natAnalog>  (99) 
F

>  <pdbName>  (99) 
PGB

$$$$

     RDKit          2D

 15 15  0  0  0  0  0  0  0  0999 V2000
    3.1895   -2.6664    0.0000 N   0  0  0  0  0  0  0  0  0  0  0  0
    2.7770   -1.9520    0.0000 C   0  0  0  0  0  0  0  0  0  0  0  0
    1.9520   -1.9520    0.0000 C   0  0  0  0  0  0  0  0  0  0  0  0
    1.5395   -1.2375    0.0000 O   0  0  0  0  0  0  0  0  0  0  0  0
    0.7145   -1.2375    0.0000 C   0  0  0  0  0  0  0  0  0  0  0  0
    0.3020   -0.5230    0.0000 C   0  0  0  0  0  0  0  0  0  0  0  0
   -0.5230   -0.5230    0.0000 C   0  0  0  0  0  0  0  0  0  0  0  0
   -0.9355    0.1914    0.0000 C   0  0  0  0  0  0  0  0  0  0  0  0
   -0.5230    0.9059    0.0000 C   0  0  0  0  0  0  0  0  0  0  0  0
    0.3020    0.9059    0.0000 C   0  0  0  0  0  0  0  0  0  0  0  0
    0.7145    0.1914    0.0000 C   0  0  0  0  0  0  0  0  0  0  0  0
    3.1895   -1.2375    0.0000 C   0  0  0  0  0  0  0  0  0  0  0  0
    4.0145   -1.2375    0.0000 O   0  0  0  0  0  0  0  0  0  0  0  0
    4.0145   -2.6664    0.0000 R#  0  0  0  0  0  0  0  0  0  0  0  0
    2.7770   -0.5230    0.0000 R#  0  0  0  0  0  0  0  0  0  0  0  0
 14  1  1  0
  2  1  1  0
  2  3  1  1
  3  4  1  0
  4  5  1  0
  5  6  1  0
  6  7  2  0
  7  8  1  0
  8  9  2  0
  9 10  1  0
 10 11  2  0
  6 11  1  0
  2 12  1  0
 12 15  1  0
 12 13  2  0
M  RGP  2  14   1  15   2
V   14 *
V   15 *
M  END
>  <m_name>  (100) 
O-Benzyl-L-serine

>  <symbol>  (100) 
Ser_Bn

>  <m_abbr>  (100) 
Ser_Bn

>  <m_type>  (100) 
aa

>  <m_subtype>  (100) 
non-natural

>  <m_Rgroups>  (100) 
H,OH,None,None

>  <m_RgroupIdx>  (100) 
13,14,None,None

>  <m_attachmentPointIdx>  (100) 
0,11,None,None

>  <natAnalog>  (100) 
S

>  <pdbName>  (100) 
SEQ

$$$$

     RDKit          2D

 18 18  0  0  0  0  0  0  0  0999 V2000
   -0.7145    2.8875    0.0000 C   0  0  0  0  0  0  0  0  0  0  0  0
    0.0000    2.4750    0.0000 C   0  0  0  0  0  0  0  0  0  0  0  0
   -0.4125    1.7605    0.0000 C   0  0  0  0  0  0  0  0  0  0  0  0
    0.4125    3.1895    0.0000 C   0  0  0  0  0  0  0  0  0  0  0  0
    0.7145    2.0625    0.0000 O   0  0  0  0  0  0  0  0  0  0  0  0
    0.7145    1.2375    0.0000 C   0  0  0  0  0  0  0  0  0  0  0  0
    1.4289    0.8250    0.0000 C   0  0  0  0  0  0  0  0  0  0  0  0
    1.4289    0.0000    0.0000 C   0  0  0  0  0  0  0  0  0  0  0  0
    0.7145   -0.4125    0.0000 C   0  0  0  0  0  0  0  0  0  0  0  0
    0.7145   -1.2375    0.0000 C   0  0  0  0  0  0  0  0  0  0  0  0
    1.4289   -1.6500    0.0000 C   0  0  0  0  0  0  0  0  0  0  0  0
    1.4289   -2.4750    0.0000 N   0  0  0  0  0  0  0  0  0  0  0  0
    2.1434   -1.2375    0.0000 C   0  0  0  0  0  0  0  0  0  0  0  0
    2.1434   -0.4125    0.0000 O   0  0  0  0  0  0  0  0  0  0  0  0
    0.0000    0.0000    0.0000 C   0  0  0  0  0  0  0  0  0  0  0  0
    0.0000    0.8250    0.0000 C   0  0  0  0  0  0  0  0  0  0  0  0
    2.1434   -2.8875    0.0000 R#  0  0  0  0  0  0  0  0  0  0  0  0
    2.8579   -1.6500    0.0000 R#  0  0  0  0  0  0  0  0  0  0  0  0
  1  2  1  0
  2  3  1  0
  2  4  1  0
  2  5  1  0
  5  6  1  0
  6  7  2  0
  7  8  1  0
  8  9  2  0
  9 10  1  0
 11 10  1  1
 11 12  1  0
 12 17  1  0
 11 13  1  0
 13 18  1  0
 13 14  2  0
  9 15  1  0
 15 16  2  0
  6 16  1  0
M  RGP  2  17   1  18   2
V   17 *
V   18 *
M  END
>  <m_name>  (101) 
O-tert-Butyl-L-tyrosine

>  <symbol>  (101) 
Tyr_tBu

>  <m_abbr>  (101) 
Tyr_tBu

>  <m_type>  (101) 
aa

>  <m_subtype>  (101) 
non-natural

>  <m_Rgroups>  (101) 
H,OH,None,None

>  <m_RgroupIdx>  (101) 
16,17,None,None

>  <m_attachmentPointIdx>  (101) 
11,12,None,None

>  <natAnalog>  (101) 
Y

>  <pdbName>  (101) 
TYK

$$$$

     RDKit          2D

 17 18  0  0  0  0  0  0  0  0999 V2000
   -0.7145   -2.8875    0.0000 N   0  0  0  0  0  0  0  0  0  0  0  0
    0.0000   -2.4750    0.0000 C   0  0  0  0  0  0  0  0  0  0  0  0
    0.0000   -1.6500    0.0000 C   0  0  0  0  0  0  0  0  0  0  0  0
    0.7145   -1.2375    0.0000 C   0  0  0  0  0  0  0  0  0  0  0  0
    0.7145   -0.4125    0.0000 C   0  0  0  0  0  0  0  0  0  0  0  0
    1.4289    0.0000    0.0000 C   0  0  0  0  0  0  0  0  0  0  0  0
    2.1434   -0.4125    0.0000 C   0  0  0  0  0  0  0  0  0  0  0  0
    2.8579    0.0000    0.0000 C   0  0  0  0  0  0  0  0  0  0  0  0
    3.5724   -0.4125    0.0000 C   0  0  0  0  0  0  0  0  0  0  0  0
    3.5724   -1.2375    0.0000 C   0  0  0  0  0  0  0  0  0  0  0  0
    2.8579   -1.6500    0.0000 C   0  0  0  0  0  0  0  0  0  0  0  0
    2.1434   -1.2375    0.0000 C   0  0  0  0  0  0  0  0  0  0  0  0
    1.4289   -1.6500    0.0000 C   0  0  0  0  0  0  0  0  0  0  0  0
    0.7145   -2.8875    0.0000 C   0  0  0  0  0  0  0  0  0  0  0  0
    0.7145   -3.7125    0.0000 O   0  0  0  0  0  0  0  0  0  0  0  0
   -0.7145   -3.7125    0.0000 R#  0  0  0  0  0  0  0  0  0  0  0  0
    1.4289   -2.4750    0.0000 R#  0  0  0  0  0  0  0  0  0  0  0  0
 16  1  1  0
  2  1  1  0
  2  3  1  1
  3  4  1  0
  4  5  2  0
  5  6  1  0
  6  7  2  0
  7  8  1  0
  8  9  2  0
  9 10  1  0
 10 11  2  0
 11 12  1  0
  7 12  1  0
 12 13  2  0
  4 13  1  0
  2 14  1  0
 14 17  1  0
 14 15  2  0
M  RGP  2  16   1  17   2
V   16 *
V   17 *
M  END
>  <m_name>  (102) 
3-Naphthylalanine

>  <symbol>  (102) 
2Nal

>  <m_abbr>  (102) 
2Nal

>  <m_type>  (102) 
aa

>  <m_subtype>  (102) 
non-natural

>  <m_Rgroups>  (102) 
H,OH,None,None

>  <m_RgroupIdx>  (102) 
15,16,None,None

>  <m_attachmentPointIdx>  (102) 
0,13,None,None

>  <natAnalog>  (102) 
A

>  <pdbName>  (102) 
2NN

$$$$

     RDKit          2D

 12 12  0  0  0  0  0  0  0  0999 V2000
   -0.1467    3.1768    0.0000 N   0  0  0  0  0  0  0  0  0  0  0  0
   -0.1467    2.3518    0.0000 C   0  0  0  0  0  0  0  0  0  0  0  0
    0.5678    1.9393    0.0000 C   0  0  0  0  0  0  0  0  0  0  0  0
    0.5678    1.1143    0.0000 C   0  0  0  0  0  0  0  0  0  0  0  0
    1.2352    0.6294    0.0000 C   0  0  0  0  0  0  0  0  0  0  0  0
    0.9803   -0.1553    0.0000 C   0  0  0  0  0  0  0  0  0  0  0  0
    0.1553   -0.1553    0.0000 C   0  0  0  0  0  0  0  0  0  0  0  0
   -0.0997    0.6294    0.0000 S   0  0  0  0  0  0  0  0  0  0  0  0
   -0.8612    1.9393    0.0000 C   0  0  0  0  0  0  0  0  0  0  0  0
   -1.5757    2.3518    0.0000 O   0  0  0  0  0  0  0  0  0  0  0  0
   -0.8612    3.5893    0.0000 R#  0  0  0  0  0  0  0  0  0  0  0  0
   -0.8612    1.1143    0.0000 R#  0  0  0  0  0  0  0  0  0  0  0  0
 11  1  1  0
  2  1  1  0
  2  3  1  1
  3  4  1  0
  4  5  2  0
  5  6  1  0
  6  7  2  0
  7  8  1  0
  4  8  1  0
  2  9  1  0
  9 12  1  0
  9 10  2  0
M  RGP  2  11   1  12   2
V   11 *
V   12 *
M  END
>  <m_name>  (103) 
3-thienylalanine

>  <symbol>  (103) 
Thi

>  <m_abbr>  (103) 
Thi

>  <m_type>  (103) 
aa

>  <m_subtype>  (103) 
non-natural

>  <m_Rgroups>  (103) 
H,OH,None,None

>  <m_RgroupIdx>  (103) 
10,11,None,None

>  <m_attachmentPointIdx>  (103) 
0,8,None,None

>  <natAnalog>  (103) 
A

>  <pdbName>  (103) 
TAI

$$$$

     RDKit          2D

 10 10  0  0  0  0  0  0  0  0999 V2000
    0.5678    1.9393    0.0000 O   0  0  0  0  0  0  0  0  0  0  0  0
    0.5678    1.1143    0.0000 C   0  0  0  0  0  0  0  0  0  0  0  0
    1.2352    0.6294    0.0000 C   0  0  0  0  0  0  0  0  0  0  0  0
    0.9803   -0.1553    0.0000 C   0  0  0  0  0  0  0  0  0  0  0  0
    0.1553   -0.1553    0.0000 N   0  0  0  0  0  0  0  0  0  0  0  0
   -0.0997    0.6294    0.0000 C   0  0  0  0  0  0  0  0  0  0  0  0
    1.4652   -0.8227    0.0000 C   0  0  0  0  0  0  0  0  0  0  0  0
    1.1296   -1.5764    0.0000 O   0  0  0  0  0  0  0  0  0  0  0  0
   -0.3297   -0.8227    0.0000 R#  0  0  0  0  0  0  0  0  0  0  0  0
    2.2857   -0.7365    0.0000 R#  0  0  0  0  0  0  0  0  0  0  0  0
  2  1  1  1
  2  3  1  0
  4  3  1  0
  4  5  1  0
  5  9  1  0
  5  6  1  0
  2  6  1  0
  4  7  1  1
  7 10  1  0
  7  8  2  0
M  RGP  2   9   1  10   2
V    9 *
V   10 *
M  END
>  <m_name>  (104) 
L-allo-4-hydroxyproline

>  <symbol>  (104) 
aHyp

>  <m_abbr>  (104) 
aHyp

>  <m_type>  (104) 
aa

>  <m_subtype>  (104) 
non-natural

>  <m_Rgroups>  (104) 
H,OH,None,None

>  <m_RgroupIdx>  (104) 
8,9,None,None

>  <m_attachmentPointIdx>  (104) 
4,6,None,None

>  <natAnalog>  (104) 
P

>  <pdbName>  (104) 
AHJ

$$$$

     RDKit          2D

 10  9  0  0  0  0  0  0  0  0999 V2000
    0.4125   -2.1434    0.0000 C   0  0  0  0  0  0  0  0  0  0  0  0
    0.8250   -1.4289    0.0000 C   0  0  0  0  0  0  0  0  0  0  0  0
    1.5395   -1.8414    0.0000 C   0  0  0  0  0  0  0  0  0  0  0  0
    0.1105   -1.0164    0.0000 C   0  0  0  0  0  0  0  0  0  0  0  0
    1.2375   -0.7145    0.0000 C   0  0  0  0  0  0  0  0  0  0  0  0
    2.0625   -0.7145    0.0000 N   0  0  0  0  0  0  0  0  0  0  0  0
    0.8250    0.0000    0.0000 C   0  0  0  0  0  0  0  0  0  0  0  0
    0.0000    0.0000    0.0000 O   0  0  0  0  0  0  0  0  0  0  0  0
    2.4750    0.0000    0.0000 R#  0  0  0  0  0  0  0  0  0  0  0  0
    1.2375    0.7145    0.0000 R#  0  0  0  0  0  0  0  0  0  0  0  0
  1  2  1  0
  2  3  1  0
  2  4  1  0
  5  2  1  0
  5  6  1  1
  6  9  1  0
  5  7  1  0
  7 10  1  0
  7  8  2  0
M  RGP  2   9   1  10   2
V    9 *
V   10 *
M  END
>  <m_name>  (105) 
3-Methylvaline

>  <symbol>  (105) 
Ala_tBu

>  <m_abbr>  (105) 
Ala_tBu

>  <m_type>  (105) 
aa

>  <m_subtype>  (105) 
non-natural

>  <m_Rgroups>  (105) 
H,OH,None,None

>  <m_RgroupIdx>  (105) 
8,9,None,None

>  <m_attachmentPointIdx>  (105) 
5,6,None,None

>  <natAnalog>  (105) 
A

>  <pdbName>  (105) 
AAJ

$$$$

     RDKit          2D

 14 14  0  0  0  0  0  0  0  0999 V2000
    2.1434   -0.4125    0.0000 N   0  0  0  0  0  0  0  0  0  0  0  0
    2.1434   -1.2375    0.0000 C   0  0  0  0  0  0  0  0  0  0  0  0
    1.4289   -1.6500    0.0000 C   0  0  0  0  0  0  0  0  0  0  0  0
    1.4289   -2.4750    0.0000 C   0  0  0  0  0  0  0  0  0  0  0  0
    0.7145   -2.8875    0.0000 C   0  0  0  0  0  0  0  0  0  0  0  0
    0.7145   -3.7125    0.0000 C   0  0  0  0  0  0  0  0  0  0  0  0
    0.0000   -4.1250    0.0000 C   0  0  0  0  0  0  0  0  0  0  0  0
   -0.7145   -3.7125    0.0000 C   0  0  0  0  0  0  0  0  0  0  0  0
   -0.7145   -2.8875    0.0000 C   0  0  0  0  0  0  0  0  0  0  0  0
    0.0000   -2.4750    0.0000 C   0  0  0  0  0  0  0  0  0  0  0  0
    2.8579   -1.6500    0.0000 C   0  0  0  0  0  0  0  0  0  0  0  0
    2.8579   -2.4750    0.0000 O   0  0  0  0  0  0  0  0  0  0  0  0
    2.8579    0.0000    0.0000 R#  0  0  0  0  0  0  0  0  0  0  0  0
    3.5724   -1.2375    0.0000 R#  0  0  0  0  0  0  0  0  0  0  0  0
 13  1  1  0
  2  1  1  0
  2  3  1  6
  3  4  1  0
  4  5  1  0
  5  6  2  0
  6  7  1  0
  7  8  2  0
  8  9  1  0
  9 10  2  0
  5 10  1  0
  2 11  1  0
 11 14  1  0
 11 12  2  0
M  RGP  2  13   1  14   2
V   13 *
V   14 *
M  END
>  <m_name>  (106) 
Homophenylalanine

>  <symbol>  (106) 
hPhe

>  <m_abbr>  (106) 
hPhe

>  <m_type>  (106) 
aa

>  <m_subtype>  (106) 
non-natural

>  <m_Rgroups>  (106) 
H,OH,None,None

>  <m_RgroupIdx>  (106) 
12,13,None,None

>  <m_attachmentPointIdx>  (106) 
0,10,None,None

>  <natAnalog>  (106) 
F

>  <pdbName>  (106) 
HP9

$$$$

     RDKit          2D

 17 18  0  0  0  0  0  0  0  0999 V2000
    0.7145   -3.7125    0.0000 N   0  0  0  0  0  0  0  0  0  0  0  0
    0.7145   -2.8875    0.0000 C   0  0  0  0  0  0  0  0  0  0  0  0
    1.4289   -2.4750    0.0000 C   0  0  0  0  0  0  0  0  0  0  0  0
    1.4289   -1.6500    0.0000 C   0  0  0  0  0  0  0  0  0  0  0  0
    0.7145   -1.2375    0.0000 C   0  0  0  0  0  0  0  0  0  0  0  0
    0.7145   -0.4125    0.0000 C   0  0  0  0  0  0  0  0  0  0  0  0
    1.4289    0.0000    0.0000 C   0  0  0  0  0  0  0  0  0  0  0  0
    2.1434   -0.4125    0.0000 C   0  0  0  0  0  0  0  0  0  0  0  0
    2.8579    0.0000    0.0000 C   0  0  0  0  0  0  0  0  0  0  0  0
    3.5724   -0.4125    0.0000 C   0  0  0  0  0  0  0  0  0  0  0  0
    3.5724   -1.2375    0.0000 C   0  0  0  0  0  0  0  0  0  0  0  0
    2.8579   -1.6500    0.0000 C   0  0  0  0  0  0  0  0  0  0  0  0
    2.1434   -1.2375    0.0000 C   0  0  0  0  0  0  0  0  0  0  0  0
    0.0000   -2.4750    0.0000 C   0  0  0  0  0  0  0  0  0  0  0  0
   -0.7145   -2.8875    0.0000 O   0  0  0  0  0  0  0  0  0  0  0  0
    0.0000   -4.1250    0.0000 R#  0  0  0  0  0  0  0  0  0  0  0  0
    0.0000   -1.6500    0.0000 R#  0  0  0  0  0  0  0  0  0  0  0  0
 16  1  1  0
  2  1  1  0
  2  3  1  1
  3  4  1  0
  4  5  2  0
  5  6  1  0
  6  7  2  0
  7  8  1  0
  8  9  2  0
  9 10  1  0
 10 11  2  0
 11 12  1  0
 12 13  2  0
  4 13  1  0
  8 13  1  0
  2 14  1  0
 14 17  1  0
 14 15  2  0
M  RGP  2  16   1  17   2
V   16 *
V   17 *
M  END
>  <m_name>  (107) 
D-3-(1-naphthyl)-alanine

>  <symbol>  (107) 
D_1Nal

>  <m_abbr>  (107) 
D_1Nal

>  <m_type>  (107) 
aa

>  <m_subtype>  (107) 
non-natural

>  <m_Rgroups>  (107) 
H,OH,None,None

>  <m_RgroupIdx>  (107) 
15,16,None,None

>  <m_attachmentPointIdx>  (107) 
0,13,None,None

>  <natAnalog>  (107) 
A

>  <pdbName>  (107) 
D1E

$$$$

     RDKit          2D

  9  8  0  0  0  0  0  0  0  0999 V2000
    0.0000   -1.4289    0.0000 C   0  0  0  0  0  0  0  0  0  0  0  0
    0.8250   -1.4289    0.0000 C   0  0  0  0  0  0  0  0  0  0  0  0
    1.2375   -2.1434    0.0000 O   0  0  0  0  0  0  0  0  0  0  0  0
    1.2375   -0.7145    0.0000 C   0  0  0  0  0  0  0  0  0  0  0  0
    2.0625   -0.7145    0.0000 N   0  0  0  0  0  0  0  0  0  0  0  0
    0.8250    0.0000    0.0000 C   0  0  0  0  0  0  0  0  0  0  0  0
    0.0000    0.0000    0.0000 O   0  0  0  0  0  0  0  0  0  0  0  0
    2.4750    0.0000    0.0000 R#  0  0  0  0  0  0  0  0  0  0  0  0
    1.2375    0.7145    0.0000 R#  0  0  0  0  0  0  0  0  0  0  0  0
  2  1  1  6
  2  3  1  0
  2  4  1  0
  4  5  1  6
  5  8  1  0
  4  6  1  0
  6  9  1  0
  6  7  2  0
M  RGP  2   8   1   9   2
V    8 *
V    9 *
M  END
>  <m_name>  (108) 
D-allo-Threonine

>  <symbol>  (108) 
D_aThr

>  <m_abbr>  (108) 
D_aThr

>  <m_type>  (108) 
aa

>  <m_subtype>  (108) 
non-natural

>  <m_Rgroups>  (108) 
H,OH,None,None

>  <m_RgroupIdx>  (108) 
7,8,None,None

>  <m_attachmentPointIdx>  (108) 
4,5,None,None

>  <natAnalog>  (108) 
T

>  <pdbName>  (108) 
DKC

$$$$

     RDKit          2D

 13 13  0  0  0  0  0  0  0  0999 V2000
    0.0000    3.3000    0.0000 N   0  0  0  0  0  0  0  0  0  0  0  0
    0.0000    2.4750    0.0000 C   0  0  0  0  0  0  0  0  0  0  0  0
    0.7145    2.0625    0.0000 C   0  0  0  0  0  0  0  0  0  0  0  0
    0.7145    1.2375    0.0000 C   0  0  0  0  0  0  0  0  0  0  0  0
    1.4289    0.8250    0.0000 C   0  0  0  0  0  0  0  0  0  0  0  0
    1.4289    0.0000    0.0000 C   0  0  0  0  0  0  0  0  0  0  0  0
    0.7145   -0.4125    0.0000 C   0  0  0  0  0  0  0  0  0  0  0  0
    0.0000    0.0000    0.0000 C   0  0  0  0  0  0  0  0  0  0  0  0
    0.0000    0.8250    0.0000 C   0  0  0  0  0  0  0  0  0  0  0  0
   -0.7145    2.0625    0.0000 C   0  0  0  0  0  0  0  0  0  0  0  0
   -1.4289    2.4750    0.0000 O   0  0  0  0  0  0  0  0  0  0  0  0
   -0.7145    3.7125    0.0000 R#  0  0  0  0  0  0  0  0  0  0  0  0
   -0.7145    1.2375    0.0000 R#  0  0  0  0  0  0  0  0  0  0  0  0
 12  1  1  0
  2  1  1  0
  2  3  1  6
  3  4  1  0
  4  5  1  0
  5  6  1  0
  6  7  1  0
  7  8  1  0
  8  9  1  0
  4  9  1  0
  2 10  1  0
 10 13  1  0
 10 11  2  0
M  RGP  2  12   1  13   2
V   12 *
V   13 *
M  END
>  <m_name>  (109) 
D-2-Amino-3-cyclohexyl-propionic acid

>  <symbol>  (109) 
D_Cha

>  <m_abbr>  (109) 
D_Cha

>  <m_type>  (109) 
aa

>  <m_subtype>  (109) 
non-natural

>  <m_Rgroups>  (109) 
H,OH,None,None

>  <m_RgroupIdx>  (109) 
11,12,None,None

>  <m_attachmentPointIdx>  (109) 
0,9,None,None

>  <natAnalog>  (109) 
A

>  <pdbName>  (109) 
DLQ

$$$$

     RDKit          2D

 11 10  0  0  0  0  0  0  0  0999 V2000
    1.6500    0.0000    0.0000 C   0  0  0  0  0  0  0  0  0  0  0  0
    1.2375    0.7145    0.0000 C   0  0  0  0  0  0  0  0  0  0  0  0
    0.8250    1.4289    0.0000 C   0  0  0  0  0  0  0  0  0  0  0  0
    0.5230    0.3020    0.0000 S   0  0  0  0  0  0  0  0  0  0  0  0
    1.9520    1.1270    0.0000 C   0  0  0  0  0  0  0  0  0  0  0  0
    2.6664    0.7145    0.0000 N   0  0  0  0  0  0  0  0  0  0  0  0
    1.9520    1.9520    0.0000 C   0  0  0  0  0  0  0  0  0  0  0  0
    1.2375    2.3645    0.0000 O   0  0  0  0  0  0  0  0  0  0  0  0
   -0.1914    0.7145    0.0000 R#  0  0  0  0  0  0  0  0  0  0  0  0
    3.3809    1.1270    0.0000 R#  0  0  0  0  0  0  0  0  0  0  0  0
    2.6664    2.3645    0.0000 R#  0  0  0  0  0  0  0  0  0  0  0  0
  1  2  1  0
  2  3  1  0
  2  4  1  0
  4  9  1  0
  5  2  1  0
  5  6  1  6
  6 10  1  0
  5  7  1  0
  7 11  1  0
  7  8  2  0
M  RGP  3   9   3  10   1  11   2
V    9 *
V   10 *
V   11 *
M  END
>  <m_name>  (110) 
D-penicillamine (3-mercaptovaline)

>  <symbol>  (110) 
D_Pen

>  <m_abbr>  (110) 
D_Pen

>  <m_type>  (110) 
aa

>  <m_subtype>  (110) 
non-natural

>  <m_Rgroups>  (110) 
H,OH,H,None

>  <m_RgroupIdx>  (110) 
9,10,8,None

>  <m_attachmentPointIdx>  (110) 
5,6,3,None

>  <natAnalog>  (110) 
V

>  <pdbName>  (110) 
DLV

$$$$

     RDKit          2D

 14 14  0  0  0  0  0  0  0  0999 V2000
    0.7145    2.0625    0.0000 Cl  0  0  0  0  0  0  0  0  0  0  0  0
    0.7145    1.2375    0.0000 C   0  0  0  0  0  0  0  0  0  0  0  0
    1.4289    0.8250    0.0000 C   0  0  0  0  0  0  0  0  0  0  0  0
    1.4289    0.0000    0.0000 C   0  0  0  0  0  0  0  0  0  0  0  0
    0.7145   -0.4125    0.0000 C   0  0  0  0  0  0  0  0  0  0  0  0
    0.7145   -1.2375    0.0000 C   0  0  0  0  0  0  0  0  0  0  0  0
    1.4289   -1.6500    0.0000 C   0  0  0  0  0  0  0  0  0  0  0  0
    1.4289   -2.4750    0.0000 N   0  0  0  0  0  0  0  0  0  0  0  0
    2.1434   -1.2375    0.0000 C   0  0  0  0  0  0  0  0  0  0  0  0
    2.1434   -0.4125    0.0000 O   0  0  0  0  0  0  0  0  0  0  0  0
    0.0000    0.0000    0.0000 C   0  0  0  0  0  0  0  0  0  0  0  0
    0.0000    0.8250    0.0000 C   0  0  0  0  0  0  0  0  0  0  0  0
    2.1434   -2.8875    0.0000 R#  0  0  0  0  0  0  0  0  0  0  0  0
    2.8579   -1.6500    0.0000 R#  0  0  0  0  0  0  0  0  0  0  0  0
  1  2  1  0
  2  3  2  0
  3  4  1  0
  4  5  2  0
  5  6  1  0
  7  6  1  6
  7  8  1  0
  8 13  1  0
  7  9  1  0
  9 14  1  0
  9 10  2  0
  5 11  1  0
 11 12  2  0
  2 12  1  0
M  RGP  2  13   1  14   2
V   13 *
V   14 *
M  END
>  <m_name>  (111) 
4-Chloro-D-phenylalanine

>  <symbol>  (111) 
D_Phe_4Cl

>  <m_abbr>  (111) 
D_Phe_4Cl

>  <m_type>  (111) 
aa

>  <m_subtype>  (111) 
non-natural

>  <m_Rgroups>  (111) 
H,OH,None,None

>  <m_RgroupIdx>  (111) 
12,13,None,None

>  <m_attachmentPointIdx>  (111) 
7,8,None,None

>  <natAnalog>  (111) 
F

>  <pdbName>  (111) 
DO0

$$$$

     RDKit          2D

 15 15  0  0  0  0  0  0  0  0999 V2000
    3.1895   -2.6664    0.0000 N   0  0  0  0  0  0  0  0  0  0  0  0
    2.7770   -1.9520    0.0000 C   0  0  0  0  0  0  0  0  0  0  0  0
    1.9520   -1.9520    0.0000 C   0  0  0  0  0  0  0  0  0  0  0  0
    1.5395   -1.2375    0.0000 O   0  0  0  0  0  0  0  0  0  0  0  0
    0.7145   -1.2375    0.0000 C   0  0  0  0  0  0  0  0  0  0  0  0
    0.3020   -0.5230    0.0000 C   0  0  0  0  0  0  0  0  0  0  0  0
   -0.5230   -0.5230    0.0000 C   0  0  0  0  0  0  0  0  0  0  0  0
   -0.9355    0.1914    0.0000 C   0  0  0  0  0  0  0  0  0  0  0  0
   -0.5230    0.9059    0.0000 C   0  0  0  0  0  0  0  0  0  0  0  0
    0.3020    0.9059    0.0000 C   0  0  0  0  0  0  0  0  0  0  0  0
    0.7145    0.1914    0.0000 C   0  0  0  0  0  0  0  0  0  0  0  0
    3.1895   -1.2375    0.0000 C   0  0  0  0  0  0  0  0  0  0  0  0
    4.0145   -1.2375    0.0000 O   0  0  0  0  0  0  0  0  0  0  0  0
    4.0145   -2.6664    0.0000 R#  0  0  0  0  0  0  0  0  0  0  0  0
    2.7770   -0.5230    0.0000 R#  0  0  0  0  0  0  0  0  0  0  0  0
 14  1  1  0
  2  1  1  0
  2  3  1  6
  3  4  1  0
  4  5  1  0
  5  6  1  0
  6  7  2  0
  7  8  1  0
  8  9  2  0
  9 10  1  0
 10 11  2  0
  6 11  1  0
  2 12  1  0
 12 15  1  0
 12 13  2  0
M  RGP  2  14   1  15   2
V   14 *
V   15 *
M  END
>  <m_name>  (112) 
O-Benzyl-D-serine

>  <symbol>  (112) 
D_Ser_Bn

>  <m_abbr>  (112) 
D_Ser_Bn

>  <m_type>  (112) 
aa

>  <m_subtype>  (112) 
non-natural

>  <m_Rgroups>  (112) 
H,OH,None,None

>  <m_RgroupIdx>  (112) 
13,14,None,None

>  <m_attachmentPointIdx>  (112) 
0,11,None,None

>  <natAnalog>  (112) 
S

>  <pdbName>  (112) 
DO7

$$$$

     RDKit          2D

 15 15  0  0  0  0  0  0  0  0999 V2000
   -0.7145    2.0625    0.0000 N   0  0  0  0  0  0  0  0  0  0  0  0
    0.0000    2.4750    0.0000 C   0  0  0  0  0  0  0  0  0  0  0  0
    0.7145    2.0625    0.0000 C   0  0  0  0  0  0  0  0  0  0  0  0
    0.7145    1.2375    0.0000 N   0  0  0  0  0  0  0  0  0  0  0  0
    1.4289    0.8250    0.0000 C   0  0  0  0  0  0  0  0  0  0  0  0
    1.4289    0.0000    0.0000 C   0  0  0  0  0  0  0  0  0  0  0  0
    0.7145   -0.4125    0.0000 C   0  0  0  0  0  0  0  0  0  0  0  0
    0.7145   -1.2375    0.0000 O   0  0  0  0  0  0  0  0  0  0  0  0
    0.0000    0.0000    0.0000 N   0  0  0  0  0  0  0  0  0  0  0  0
    0.0000    0.8250    0.0000 C   0  0  0  0  0  0  0  0  0  0  0  0
   -0.7145    1.2375    0.0000 O   0  0  0  0  0  0  0  0  0  0  0  0
    0.0000    3.3000    0.0000 C   0  0  0  0  0  0  0  0  0  0  0  0
   -0.7145    3.7125    0.0000 O   0  0  0  0  0  0  0  0  0  0  0  0
   -1.4289    2.4750    0.0000 R#  0  0  0  0  0  0  0  0  0  0  0  0
    0.7145    3.7125    0.0000 R#  0  0  0  0  0  0  0  0  0  0  0  0
 14  1  1  0
  2  1  1  0
  2  3  1  6
  3  4  1  0
  4  5  1  0
  5  6  2  0
  6  7  1  0
  7  8  2  0
  7  9  1  0
  9 10  1  0
  4 10  1  0
 10 11  2  0
  2 12  1  0
 12 15  1  0
 12 13  2  0
M  RGP  2  14   1  15   2
V   14 *
V   15 *
M  END
>  <m_name>  (113) 
Alpha-amino-2,4-dioxopyrimidinepropanoic acid

>  <symbol>  (113) 
Wil

>  <m_abbr>  (113) 
Wil

>  <m_type>  (113) 
aa

>  <m_subtype>  (113) 
non-natural

>  <m_Rgroups>  (113) 
H,OH,None,None

>  <m_RgroupIdx>  (113) 
13,14,None,None

>  <m_attachmentPointIdx>  (113) 
0,11,None,None

>  <natAnalog>  (113) 
X

>  <pdbName>  (113) 
WIL

$$$$

     RDKit          2D

  5  4  0  0  0  0  0  0  0  0999 V2000
    1.0000   -0.0008    0.0000 C   0  0  0  0  0  0  0  0  0  0  0  0
    0.0000    0.0000    0.0000 S   0  0  0  0  0  0  0  0  0  0  0  0
    0.0008    1.0000    0.0000 O   0  0  0  0  0  0  0  0  0  0  0  0
   -0.0008   -1.0000    0.0000 O   0  0  0  0  0  0  0  0  0  0  0  0
   -1.0000    0.0008    0.0000 R#  0  0  0  0  0  0  0  0  0  0  0  0
  1  2  1  0
  2  3  2  0
  2  4  2  0
  2  5  1  0
M  RGP  1   5   2
V    5 *
M  END
>  <m_name>  (114) 
Mesylate

>  <symbol>  (114) 
MsO

>  <m_abbr>  (114) 
MsO

>  <m_type>  (114) 
cap

>  <m_subtype>  (114) 
cap

>  <m_Rgroups>  (114) 
None,OH,None,None

>  <m_RgroupIdx>  (114) 
None,4,None,None

>  <m_attachmentPointIdx>  (114) 
None,1,None,None

>  <natAnalog>  (114) 
X

>  <pdbName>  (114) 
MSV

$$$$

     RDKit          2D

 13 14  0  0  0  0  0  0  0  0999 V2000
    1.1387   -0.0305    0.0000 N   0  0  0  0  0  0  0  0  0  0  0  0
    1.9233   -0.2854    0.0000 C   0  0  0  0  0  0  0  0  0  0  0  0
    2.6378    0.1271    0.0000 C   0  0  0  0  0  0  0  0  0  0  0  0
    3.3523   -0.2854    0.0000 C   0  0  0  0  0  0  0  0  0  0  0  0
    3.3523   -1.1104    0.0000 C   0  0  0  0  0  0  0  0  0  0  0  0
    2.6378   -1.5229    0.0000 C   0  0  0  0  0  0  0  0  0  0  0  0
    1.9233   -1.1104    0.0000 C   0  0  0  0  0  0  0  0  0  0  0  0
    1.1387   -1.3654    0.0000 C   0  0  0  0  0  0  0  0  0  0  0  0
    0.6538   -0.6979    0.0000 C   0  0  0  0  0  0  0  0  0  0  0  0
   -0.1712   -0.6979    0.0000 C   0  0  0  0  0  0  0  0  0  0  0  0
   -0.5837    0.0165    0.0000 O   0  0  0  0  0  0  0  0  0  0  0  0
    0.8838    0.7541    0.0000 R#  0  0  0  0  0  0  0  0  0  0  0  0
   -0.5837   -1.4124    0.0000 R#  0  0  0  0  0  0  0  0  0  0  0  0
 12  1  1  0
  2  1  1  0
  2  3  1  1
  3  4  1  0
  4  5  1  0
  5  6  1  0
  7  6  1  1
  2  7  1  0
  7  8  1  0
  9  8  1  0
  9  1  1  0
  9 10  1  1
 10 13  1  0
 10 11  2  0
M  RGP  2  12   1  13   2
V   12 *
V   13 *
M  END
>  <m_name>  (115) 
Perhydroindolic acid

>  <symbol>  (115) 
Oic_3aS_7aS

>  <m_abbr>  (115) 
Oic_3aS_7aS

>  <m_type>  (115) 
aa

>  <m_subtype>  (115) 
non-natural

>  <m_Rgroups>  (115) 
H,OH,None,None

>  <m_RgroupIdx>  (115) 
11,12,None,None

>  <m_attachmentPointIdx>  (115) 
0,9,None,None

>  <natAnalog>  (115) 
X

>  <pdbName>  (115) 
OIB

$$$$

     RDKit          2D

 10 10  0  0  0  0  0  0  0  0999 V2000
    0.7145    1.2375    0.0000 N   0  0  0  0  0  0  0  0  0  0  0  0
    1.4289    0.8250    0.0000 C   0  0  0  0  0  0  0  0  0  0  0  0
    1.4289    0.0000    0.0000 C   0  0  0  0  0  0  0  0  0  0  0  0
    0.7145   -0.4125    0.0000 C   0  0  0  0  0  0  0  0  0  0  0  0
    0.0000    0.0000    0.0000 C   0  0  0  0  0  0  0  0  0  0  0  0
    0.0000    0.8250    0.0000 C   0  0  0  0  0  0  0  0  0  0  0  0
   -0.7145    1.2375    0.0000 C   0  0  0  0  0  0  0  0  0  0  0  0
   -0.7145    2.0625    0.0000 O   0  0  0  0  0  0  0  0  0  0  0  0
    0.7145    2.0625    0.0000 R#  0  0  0  0  0  0  0  0  0  0  0  0
   -1.4289    0.8250    0.0000 R#  0  0  0  0  0  0  0  0  0  0  0  0
  9  1  1  0
  1  2  1  0
  2  3  1  0
  3  4  1  0
  4  5  1  0
  6  5  1  0
  6  1  1  0
  6  7  1  1
  7 10  1  0
  7  8  2  0
M  RGP  2   9   1  10   2
V    9 *
V   10 *
M  END
>  <m_name>  (116) 
Pipecolic acid

>  <symbol>  (116) 
Pip

>  <m_abbr>  (116) 
Pip

>  <m_type>  (116) 
aa

>  <m_subtype>  (116) 
non-natural

>  <m_Rgroups>  (116) 
H,OH,None,None

>  <m_RgroupIdx>  (116) 
8,9,None,None

>  <m_attachmentPointIdx>  (116) 
0,6,None,None

>  <natAnalog>  (116) 
X

>  <pdbName>  (116) 
PIJ

$$$$

     RDKit          2D

 13 13  0  0  0  0  0  0  0  0999 V2000
    0.0000    3.3000    0.0000 N   0  0  0  0  0  0  0  0  0  0  0  0
    0.0000    2.4750    0.0000 C   0  0  0  0  0  0  0  0  0  0  0  0
    0.7145    2.0625    0.0000 C   0  0  0  0  0  0  0  0  0  0  0  0
    0.7145    1.2375    0.0000 C   0  0  0  0  0  0  0  0  0  0  0  0
    1.4289    0.8250    0.0000 C   0  0  0  0  0  0  0  0  0  0  0  0
    1.4289    0.0000    0.0000 C   0  0  0  0  0  0  0  0  0  0  0  0
    0.7145   -0.4125    0.0000 C   0  0  0  0  0  0  0  0  0  0  0  0
    0.0000    0.0000    0.0000 N   0  0  0  0  0  0  0  0  0  0  0  0
    0.0000    0.8250    0.0000 C   0  0  0  0  0  0  0  0  0  0  0  0
   -0.7145    2.0625    0.0000 C   0  0  0  0  0  0  0  0  0  0  0  0
   -1.4289    2.4750    0.0000 O   0  0  0  0  0  0  0  0  0  0  0  0
   -0.7145    3.7125    0.0000 R#  0  0  0  0  0  0  0  0  0  0  0  0
   -0.7145    1.2375    0.0000 R#  0  0  0  0  0  0  0  0  0  0  0  0
 12  1  1  0
  2  1  1  0
  2  3  1  1
  3  4  1  0
  4  5  2  0
  5  6  1  0
  6  7  2  0
  7  8  1  0
  8  9  2  0
  4  9  1  0
  2 10  1  0
 10 13  1  0
 10 11  2  0
M  RGP  2  12   1  13   2
V   12 *
V   13 *
M  END
>  <m_name>  (117) 
3-(2-pyridyl)-alanine

>  <symbol>  (117) 
3Pal

>  <m_abbr>  (117) 
3Pal

>  <m_type>  (117) 
aa

>  <m_subtype>  (117) 
non-natural

>  <m_Rgroups>  (117) 
H,OH,None,None

>  <m_RgroupIdx>  (117) 
11,12,None,None

>  <m_attachmentPointIdx>  (117) 
0,9,None,None

>  <natAnalog>  (117) 
X

>  <pdbName>  (117) 
3PN

$$$$

     RDKit          2D

 13 13  0  0  0  0  0  0  0  0999 V2000
    0.0000    3.3000    0.0000 N   0  0  0  0  0  0  0  0  0  0  0  0
    0.0000    2.4750    0.0000 C   0  0  0  0  0  0  0  0  0  0  0  0
    0.7145    2.0625    0.0000 C   0  0  0  0  0  0  0  0  0  0  0  0
    0.7145    1.2375    0.0000 C   0  0  0  0  0  0  0  0  0  0  0  0
    1.4289    0.8250    0.0000 C   0  0  0  0  0  0  0  0  0  0  0  0
    1.4289    0.0000    0.0000 C   0  0  0  0  0  0  0  0  0  0  0  0
    0.7145   -0.4125    0.0000 N   0  0  0  0  0  0  0  0  0  0  0  0
    0.0000    0.0000    0.0000 C   0  0  0  0  0  0  0  0  0  0  0  0
    0.0000    0.8250    0.0000 C   0  0  0  0  0  0  0  0  0  0  0  0
   -0.7145    2.0625    0.0000 C   0  0  0  0  0  0  0  0  0  0  0  0
   -1.4289    2.4750    0.0000 O   0  0  0  0  0  0  0  0  0  0  0  0
   -0.7145    3.7125    0.0000 R#  0  0  0  0  0  0  0  0  0  0  0  0
   -0.7145    1.2375    0.0000 R#  0  0  0  0  0  0  0  0  0  0  0  0
 12  1  1  0
  2  1  1  0
  2  3  1  1
  3  4  1  0
  4  5  2  0
  5  6  1  0
  6  7  2  0
  7  8  1  0
  8  9  2  0
  4  9  1  0
  2 10  1  0
 10 13  1  0
 10 11  2  0
M  RGP  2  12   1  13   2
V   12 *
V   13 *
M  END
>  <m_name>  (118) 
3-(4-Pyridyl)-alanine

>  <symbol>  (118) 
4Pal

>  <m_abbr>  (118) 
4Pal

>  <m_type>  (118) 
aa

>  <m_subtype>  (118) 
non-natural

>  <m_Rgroups>  (118) 
H,OH,None,None

>  <m_RgroupIdx>  (118) 
11,12,None,None

>  <m_attachmentPointIdx>  (118) 
0,9,None,None

>  <natAnalog>  (118) 
X

>  <pdbName>  (118) 
4PM

$$$$

     RDKit          2D

  8  7  0  0  0  0  0  0  0  0999 V2000
    0.0000   -1.4289    0.0000 C   0  0  0  0  0  0  0  0  0  0  0  0
    0.8250   -1.4289    0.0000 C   0  0  0  0  0  0  0  0  0  0  0  0
    1.2375   -0.7145    0.0000 C   0  0  0  0  0  0  0  0  0  0  0  0
    2.0625   -0.7145    0.0000 N   0  0  0  0  0  0  0  0  0  0  0  0
    0.8250    0.0000    0.0000 C   0  0  0  0  0  0  0  0  0  0  0  0
    0.0000    0.0000    0.0000 O   0  0  0  0  0  0  0  0  0  0  0  0
    2.4750    0.0000    0.0000 R#  0  0  0  0  0  0  0  0  0  0  0  0
    1.2375    0.7145    0.0000 R#  0  0  0  0  0  0  0  0  0  0  0  0
  1  2  1  0
  3  2  1  1
  3  4  1  0
  4  7  1  0
  3  5  1  0
  5  8  1  0
  5  6  2  0
M  RGP  2   7   1   8   2
V    7 *
V    8 *
M  END
>  <m_name>  (119) 
2-Aminobutanoic acid

>  <symbol>  (119) 
Abu

>  <m_abbr>  (119) 
Abu

>  <m_type>  (119) 
aa

>  <m_subtype>  (119) 
non-natural

>  <m_Rgroups>  (119) 
H,OH,None,None

>  <m_RgroupIdx>  (119) 
6,7,None,None

>  <m_attachmentPointIdx>  (119) 
3,4,None,None

>  <natAnalog>  (119) 
X

>  <pdbName>  (119) 
ABC

$$$$

     RDKit          2D

 13 12  0  0  0  0  0  0  0  0999 V2000
    5.2882    4.9755    0.0000 N   0  0  0  0  0  0  0  0  0  0  0  0
    4.7481    4.3519    0.0000 C   0  0  0  0  0  0  0  0  0  0  0  0
    3.9379    4.5078    0.0000 C   0  0  0  0  0  0  0  0  0  0  0  0
    3.3979    3.8842    0.0000 C   0  0  0  0  0  0  0  0  0  0  0  0
    2.5877    4.0401    0.0000 C   0  0  0  0  0  0  0  0  0  0  0  0
    2.0476    3.4164    0.0000 C   0  0  0  0  0  0  0  0  0  0  0  0
    1.2375    3.5724    0.0000 C   0  0  0  0  0  0  0  0  0  0  0  0
    0.9675    4.3519    0.0000 O   0  0  0  0  0  0  0  0  0  0  0  0
    5.0181    3.5724    0.0000 C   0  0  0  0  0  0  0  0  0  0  0  0
    4.4780    2.9487    0.0000 O   0  0  0  0  0  0  0  0  0  0  0  0
    6.0983    4.8196    0.0000 R#  0  0  0  0  0  0  0  0  0  0  0  0
    0.6974    2.9487    0.0000 R#  0  0  0  0  0  0  0  0  0  0  0  0
    5.8283    3.4164    0.0000 R#  0  0  0  0  0  0  0  0  0  0  0  0
 11  1  1  0
  2  1  1  0
  2  3  1  6
  3  4  1  0
  4  5  1  0
  5  6  1  0
  6  7  1  0
  7 12  1  0
  7  8  2  0
  2  9  1  0
  9 13  1  0
  9 10  2  0
M  RGP  3  11   1  12   3  13   2
V   11 *
V   12 *
V   13 *
M  END
>  <m_name>  (120) 
2-Aminopimelic acid

>  <symbol>  (120) 
Apm

>  <m_abbr>  (120) 
Apm

>  <m_type>  (120) 
aa

>  <m_subtype>  (120) 
non-natural

>  <m_Rgroups>  (120) 
H,OH,OH,None

>  <m_RgroupIdx>  (120) 
10,12,11,None

>  <m_attachmentPointIdx>  (120) 
0,8,6,None

>  <natAnalog>  (120) 
X

>  <pdbName>  (120) 
AAW

$$$$

     RDKit          2D

 12 12  0  0  0  0  0  0  0  0999 V2000
    0.0000    2.4750    0.0000 N   0  0  0  0  0  0  0  0  0  0  0  0
    0.7145    2.0625    0.0000 C   0  0  0  0  0  0  0  0  0  0  0  0
    0.7145    1.2375    0.0000 C   0  0  0  0  0  0  0  0  0  0  0  0
    1.4289    0.8250    0.0000 C   0  0  0  0  0  0  0  0  0  0  0  0
    1.4289    0.0000    0.0000 C   0  0  0  0  0  0  0  0  0  0  0  0
    0.7145   -0.4125    0.0000 C   0  0  0  0  0  0  0  0  0  0  0  0
    0.0000    0.0000    0.0000 C   0  0  0  0  0  0  0  0  0  0  0  0
    0.0000    0.8250    0.0000 C   0  0  0  0  0  0  0  0  0  0  0  0
    1.4289    2.4750    0.0000 C   0  0  0  0  0  0  0  0  0  0  0  0
    1.4289    3.3000    0.0000 O   0  0  0  0  0  0  0  0  0  0  0  0
    0.0000    3.3000    0.0000 R#  0  0  0  0  0  0  0  0  0  0  0  0
    2.1434    2.0625    0.0000 R#  0  0  0  0  0  0  0  0  0  0  0  0
 11  1  1  0
  2  1  1  6
  2  3  1  0
  3  4  1  0
  4  5  1  0
  5  6  1  0
  6  7  1  0
  7  8  1  0
  3  8  1  0
  2  9  1  0
  9 12  1  0
  9 10  2  0
M  RGP  2  11   1  12   2
V   11 *
V   12 *
M  END
>  <m_name>  (121) 
Alpha-cyclohexylglycine

>  <symbol>  (121) 
Chg

>  <m_abbr>  (121) 
Chg

>  <m_type>  (121) 
aa

>  <m_subtype>  (121) 
non-natural

>  <m_Rgroups>  (121) 
H,OH,None,None

>  <m_RgroupIdx>  (121) 
10,11,None,None

>  <m_attachmentPointIdx>  (121) 
0,8,None,None

>  <natAnalog>  (121) 
X

>  <pdbName>  (121) 
CHY

$$$$

     RDKit          2D

 10  9  0  0  0  0  0  0  0  0999 V2000
    3.7125    3.5724    0.0000 N   0  0  0  0  0  0  0  0  0  0  0  0
    3.3000    2.8579    0.0000 C   0  0  0  0  0  0  0  0  0  0  0  0
    2.4750    2.8579    0.0000 C   0  0  0  0  0  0  0  0  0  0  0  0
    2.0625    2.1434    0.0000 C   0  0  0  0  0  0  0  0  0  0  0  0
    1.2375    2.1434    0.0000 N   0  0  0  0  0  0  0  0  0  0  0  0
    3.7125    2.1434    0.0000 C   0  0  0  0  0  0  0  0  0  0  0  0
    3.3000    1.4289    0.0000 O   0  0  0  0  0  0  0  0  0  0  0  0
    4.5375    3.5724    0.0000 R#  0  0  0  0  0  0  0  0  0  0  0  0
    0.8250    1.4289    0.0000 R#  0  0  0  0  0  0  0  0  0  0  0  0
    4.5375    2.1434    0.0000 R#  0  0  0  0  0  0  0  0  0  0  0  0
  8  1  1  0
  2  1  1  0
  2  3  1  6
  3  4  1  0
  4  5  1  0
  5  9  1  0
  2  6  1  0
  6 10  1  0
  6  7  2  0
M  RGP  3   8   1   9   3  10   2
V    8 *
V    9 *
V   10 *
M  END
>  <m_name>  (122) 
2,4-diaminobutanoic acid

>  <symbol>  (122) 
Dab

>  <m_abbr>  (122) 
Dab

>  <m_type>  (122) 
aa

>  <m_subtype>  (122) 
non-natural

>  <m_Rgroups>  (122) 
H,OH,H,None

>  <m_RgroupIdx>  (122) 
7,9,8,None

>  <m_attachmentPointIdx>  (122) 
0,5,4,None

>  <natAnalog>  (122) 
X

>  <pdbName>  (122) 
DQE

$$$$

     RDKit          2D

  9  8  0  0  0  0  0  0  0  0999 V2000
    1.9520   -1.9520    0.0000 N   0  0  0  0  0  0  0  0  0  0  0  0
    1.9520   -1.1270    0.0000 C   0  0  0  0  0  0  0  0  0  0  0  0
    1.2375   -0.7145    0.0000 C   0  0  0  0  0  0  0  0  0  0  0  0
    1.2375    0.1105    0.0000 N   0  0  0  0  0  0  0  0  0  0  0  0
    2.6664   -0.7145    0.0000 C   0  0  0  0  0  0  0  0  0  0  0  0
    3.3809   -1.1270    0.0000 O   0  0  0  0  0  0  0  0  0  0  0  0
    2.6664   -2.3645    0.0000 R#  0  0  0  0  0  0  0  0  0  0  0  0
    0.5230    0.5230    0.0000 R#  0  0  0  0  0  0  0  0  0  0  0  0
    2.6664    0.1105    0.0000 R#  0  0  0  0  0  0  0  0  0  0  0  0
  7  1  1  0
  2  1  1  0
  2  3  1  1
  3  4  1  0
  4  8  1  0
  2  5  1  0
  5  9  1  0
  5  6  2  0
M  RGP  3   7   1   8   3   9   2
V    7 *
V    8 *
V    9 *
M  END
>  <m_name>  (123) 
2,3-diaminopropanoic acid

>  <symbol>  (123) 
Dap

>  <m_abbr>  (123) 
Dap

>  <m_type>  (123) 
aa

>  <m_subtype>  (123) 
non-natural

>  <m_Rgroups>  (123) 
H,OH,H,None

>  <m_RgroupIdx>  (123) 
6,8,7,None

>  <m_attachmentPointIdx>  (123) 
0,4,3,None

>  <natAnalog>  (123) 
X

>  <pdbName>  (123) 
DQI

$$$$

     RDKit          2D

 13 13  0  0  0  0  0  0  0  0999 V2000
    0.0000    3.3000    0.0000 N   0  0  0  0  0  0  0  0  0  0  0  0
    0.0000    2.4750    0.0000 C   0  0  0  0  0  0  0  0  0  0  0  0
    0.7145    2.0625    0.0000 C   0  0  0  0  0  0  0  0  0  0  0  0
    0.7145    1.2375    0.0000 C   0  0  0  0  0  0  0  0  0  0  0  0
    1.4289    0.8250    0.0000 C   0  0  0  0  0  0  0  0  0  0  0  0
    1.4289    0.0000    0.0000 C   0  0  0  0  0  0  0  0  0  0  0  0
    0.7145   -0.4125    0.0000 C   0  0  0  0  0  0  0  0  0  0  0  0
    0.0000    0.0000    0.0000 N   0  0  0  0  0  0  0  0  0  0  0  0
    0.0000    0.8250    0.0000 C   0  0  0  0  0  0  0  0  0  0  0  0
   -0.7145    2.0625    0.0000 C   0  0  0  0  0  0  0  0  0  0  0  0
   -1.4289    2.4750    0.0000 O   0  0  0  0  0  0  0  0  0  0  0  0
   -0.7145    3.7125    0.0000 R#  0  0  0  0  0  0  0  0  0  0  0  0
   -0.7145    1.2375    0.0000 R#  0  0  0  0  0  0  0  0  0  0  0  0
 12  1  1  0
  2  1  1  0
  2  3  1  6
  3  4  1  0
  4  5  2  0
  5  6  1  0
  6  7  2  0
  7  8  1  0
  8  9  2  0
  4  9  1  0
  2 10  1  0
 10 13  1  0
 10 11  2  0
M  RGP  2  12   1  13   2
V   12 *
V   13 *
M  END
>  <m_name>  (124) 
D-3-(2-pyridyl)-alanine

>  <symbol>  (124) 
D_3Pal

>  <m_abbr>  (124) 
D_3Pal

>  <m_type>  (124) 
aa

>  <m_subtype>  (124) 
non-natural

>  <m_Rgroups>  (124) 
H,OH,None,None

>  <m_RgroupIdx>  (124) 
11,12,None,None

>  <m_attachmentPointIdx>  (124) 
0,9,None,None

>  <natAnalog>  (124) 
X

>  <pdbName>  (124) 
D3I

$$$$

     RDKit          2D

  9  8  0  0  0  0  0  0  0  0999 V2000
    0.5230   -1.9520    0.0000 C   0  0  0  0  0  0  0  0  0  0  0  0
    0.5230   -1.1270    0.0000 C   0  0  0  0  0  0  0  0  0  0  0  0
    1.2375   -0.7145    0.0000 C   0  0  0  0  0  0  0  0  0  0  0  0
    1.6500   -1.4289    0.0000 C   0  0  0  0  0  0  0  0  0  0  0  0
    1.9520   -0.3020    0.0000 N   0  0  0  0  0  0  0  0  0  0  0  0
    0.8250    0.0000    0.0000 C   0  0  0  0  0  0  0  0  0  0  0  0
    0.0000    0.0000    0.0000 O   0  0  0  0  0  0  0  0  0  0  0  0
    1.9520    0.5230    0.0000 R#  0  0  0  0  0  0  0  0  0  0  0  0
    1.2375    0.7145    0.0000 R#  0  0  0  0  0  0  0  0  0  0  0  0
  1  2  1  0
  3  2  1  0
  3  4  1  1
  3  5  1  0
  5  8  1  0
  3  6  1  0
  6  9  1  0
  6  7  2  0
M  RGP  2   8   1   9   2
V    8 *
V    9 *
M  END
>  <m_name>  (125) 
D-Isovaline

>  <symbol>  (125) 
D_aMeAbu

>  <m_abbr>  (125) 
D_aMeAbu

>  <m_type>  (125) 
aa

>  <m_subtype>  (125) 
non-natural

>  <m_Rgroups>  (125) 
H,OH,None,None

>  <m_RgroupIdx>  (125) 
7,8,None,None

>  <m_attachmentPointIdx>  (125) 
4,5,None,None

>  <natAnalog>  (125) 
X

>  <pdbName>  (125) 
DQ4

$$$$

     RDKit          2D

 12 12  0  0  0  0  0  0  0  0999 V2000
    0.0000    2.4750    0.0000 N   0  0  0  0  0  0  0  0  0  0  0  0
    0.7145    2.0625    0.0000 C   0  0  0  0  0  0  0  0  0  0  0  0
    0.7145    1.2375    0.0000 C   0  0  0  0  0  0  0  0  0  0  0  0
    1.4289    0.8250    0.0000 C   0  0  0  0  0  0  0  0  0  0  0  0
    1.4289    0.0000    0.0000 C   0  0  0  0  0  0  0  0  0  0  0  0
    0.7145   -0.4125    0.0000 C   0  0  0  0  0  0  0  0  0  0  0  0
    0.0000    0.0000    0.0000 C   0  0  0  0  0  0  0  0  0  0  0  0
    0.0000    0.8250    0.0000 C   0  0  0  0  0  0  0  0  0  0  0  0
    1.4289    2.4750    0.0000 C   0  0  0  0  0  0  0  0  0  0  0  0
    1.4289    3.3000    0.0000 O   0  0  0  0  0  0  0  0  0  0  0  0
    0.0000    3.3000    0.0000 R#  0  0  0  0  0  0  0  0  0  0  0  0
    2.1434    2.0625    0.0000 R#  0  0  0  0  0  0  0  0  0  0  0  0
 11  1  1  0
  2  1  1  1
  2  3  1  0
  3  4  1  0
  4  5  1  0
  5  6  1  0
  6  7  1  0
  7  8  1  0
  3  8  1  0
  2  9  1  0
  9 12  1  0
  9 10  2  0
M  RGP  2  11   1  12   2
V   11 *
V   12 *
M  END
>  <m_name>  (126) 
D-Alpha-cyclohexylglycine

>  <symbol>  (126) 
D_Chg

>  <m_abbr>  (126) 
D_Chg

>  <m_type>  (126) 
aa

>  <m_subtype>  (126) 
non-natural

>  <m_Rgroups>  (126) 
H,OH,None,None

>  <m_RgroupIdx>  (126) 
10,11,None,None

>  <m_attachmentPointIdx>  (126) 
0,8,None,None

>  <natAnalog>  (126) 
X

>  <pdbName>  (126) 
DUF

$$$$

     RDKit          2D

 13 12  0  0  0  0  0  0  0  0999 V2000
    0.6974   -2.9487    0.0000 N   0  0  0  0  0  0  0  0  0  0  0  0
    1.2375   -3.5724    0.0000 C   0  0  0  0  0  0  0  0  0  0  0  0
    0.9675   -4.3519    0.0000 O   0  0  0  0  0  0  0  0  0  0  0  0
    2.0476   -3.4164    0.0000 N   0  0  0  0  0  0  0  0  0  0  0  0
    2.5877   -4.0401    0.0000 C   0  0  0  0  0  0  0  0  0  0  0  0
    3.3979   -3.8842    0.0000 C   0  0  0  0  0  0  0  0  0  0  0  0
    3.9379   -4.5078    0.0000 C   0  0  0  0  0  0  0  0  0  0  0  0
    4.7481   -4.3519    0.0000 C   0  0  0  0  0  0  0  0  0  0  0  0
    5.2882   -4.9755    0.0000 N   0  0  0  0  0  0  0  0  0  0  0  0
    5.0181   -3.5724    0.0000 C   0  0  0  0  0  0  0  0  0  0  0  0
    5.8283   -3.4164    0.0000 O   0  0  0  0  0  0  0  0  0  0  0  0
    6.0983   -4.8196    0.0000 R#  0  0  0  0  0  0  0  0  0  0  0  0
    4.4780   -2.9487    0.0000 R#  0  0  0  0  0  0  0  0  0  0  0  0
  1  2  1  0
  2  3  2  0
  2  4  1  0
  4  5  1  0
  5  6  1  0
  6  7  1  0
  8  7  1  6
  8  9  1  0
  9 12  1  0
  8 10  1  0
 10 13  1  0
 10 11  2  0
M  RGP  2  12   1  13   2
V   12 *
V   13 *
M  END
>  <m_name>  (127) 
D-Citrullin

>  <symbol>  (127) 
D_Cit

>  <m_abbr>  (127) 
D_Cit

>  <m_type>  (127) 
aa

>  <m_subtype>  (127) 
non-natural

>  <m_Rgroups>  (127) 
H,OH,None,None

>  <m_RgroupIdx>  (127) 
11,12,None,None

>  <m_attachmentPointIdx>  (127) 
8,9,None,None

>  <natAnalog>  (127) 
X

>  <pdbName>  (127) 
DUI

$$$$

     RDKit          2D

 10  9  0  0  0  0  0  0  0  0999 V2000
    3.7125    3.5724    0.0000 N   0  0  0  0  0  0  0  0  0  0  0  0
    3.3000    2.8579    0.0000 C   0  0  0  0  0  0  0  0  0  0  0  0
    2.4750    2.8579    0.0000 C   0  0  0  0  0  0  0  0  0  0  0  0
    2.0625    2.1434    0.0000 C   0  0  0  0  0  0  0  0  0  0  0  0
    1.2375    2.1434    0.0000 N   0  0  0  0  0  0  0  0  0  0  0  0
    3.7125    2.1434    0.0000 C   0  0  0  0  0  0  0  0  0  0  0  0
    3.3000    1.4289    0.0000 O   0  0  0  0  0  0  0  0  0  0  0  0
    4.5375    3.5724    0.0000 R#  0  0  0  0  0  0  0  0  0  0  0  0
    0.8250    1.4289    0.0000 R#  0  0  0  0  0  0  0  0  0  0  0  0
    4.5375    2.1434    0.0000 R#  0  0  0  0  0  0  0  0  0  0  0  0
  8  1  1  0
  2  1  1  0
  2  3  1  1
  3  4  1  0
  4  5  1  0
  5  9  1  0
  2  6  1  0
  6 10  1  0
  6  7  2  0
M  RGP  3   8   1   9   3  10   2
V    8 *
V    9 *
V   10 *
M  END
>  <m_name>  (128) 
D-2,4-diaminobutanoic acid

>  <symbol>  (128) 
D_Dab

>  <m_abbr>  (128) 
D_Dab

>  <m_type>  (128) 
aa

>  <m_subtype>  (128) 
non-natural

>  <m_Rgroups>  (128) 
H,OH,H,None

>  <m_RgroupIdx>  (128) 
7,9,8,None

>  <m_attachmentPointIdx>  (128) 
0,5,4,None

>  <natAnalog>  (128) 
X

>  <pdbName>  (128) 
DUJ

$$$$

     RDKit          2D

 10 10  0  0  0  0  0  0  0  0999 V2000
    0.7145    1.2375    0.0000 N   0  0  0  0  0  0  0  0  0  0  0  0
    1.4289    0.8250    0.0000 C   0  0  0  0  0  0  0  0  0  0  0  0
    1.4289    0.0000    0.0000 C   0  0  0  0  0  0  0  0  0  0  0  0
    0.7145   -0.4125    0.0000 C   0  0  0  0  0  0  0  0  0  0  0  0
    0.0000    0.0000    0.0000 C   0  0  0  0  0  0  0  0  0  0  0  0
    0.0000    0.8250    0.0000 C   0  0  0  0  0  0  0  0  0  0  0  0
   -0.7145    1.2375    0.0000 C   0  0  0  0  0  0  0  0  0  0  0  0
   -0.7145    2.0625    0.0000 O   0  0  0  0  0  0  0  0  0  0  0  0
    0.7145    2.0625    0.0000 R#  0  0  0  0  0  0  0  0  0  0  0  0
   -1.4289    0.8250    0.0000 R#  0  0  0  0  0  0  0  0  0  0  0  0
  9  1  1  0
  1  2  1  0
  2  3  1  0
  3  4  1  0
  4  5  1  0
  6  5  1  0
  6  1  1  0
  6  7  1  6
  7 10  1  0
  7  8  2  0
M  RGP  2   9   1  10   2
V    9 *
V   10 *
M  END
>  <m_name>  (129) 
D-Pipecolic acid

>  <symbol>  (129) 
D_Pip

>  <m_abbr>  (129) 
D_Pip

>  <m_type>  (129) 
aa

>  <m_subtype>  (129) 
non-natural

>  <m_Rgroups>  (129) 
H,OH,None,None

>  <m_RgroupIdx>  (129) 
8,9,None,None

>  <m_attachmentPointIdx>  (129) 
0,6,None,None

>  <natAnalog>  (129) 
X

>  <pdbName>  (129) 
DUM

$$$$

     RDKit          2D

 14 15  0  0  0  0  0  0  0  0999 V2000
    0.7145   -0.4125    0.0000 N   0  0  0  0  0  0  0  0  0  0  0  0
    1.4289    0.0000    0.0000 C   0  0  0  0  0  0  0  0  0  0  0  0
    2.1434   -0.4125    0.0000 C   0  0  0  0  0  0  0  0  0  0  0  0
    2.8579    0.0000    0.0000 C   0  0  0  0  0  0  0  0  0  0  0  0
    3.5724   -0.4125    0.0000 C   0  0  0  0  0  0  0  0  0  0  0  0
    3.5724   -1.2375    0.0000 C   0  0  0  0  0  0  0  0  0  0  0  0
    2.8579   -1.6500    0.0000 C   0  0  0  0  0  0  0  0  0  0  0  0
    2.1434   -1.2375    0.0000 C   0  0  0  0  0  0  0  0  0  0  0  0
    1.4289   -1.6500    0.0000 C   0  0  0  0  0  0  0  0  0  0  0  0
    0.7145   -1.2375    0.0000 C   0  0  0  0  0  0  0  0  0  0  0  0
    0.0000   -1.6500    0.0000 C   0  0  0  0  0  0  0  0  0  0  0  0
   -0.7145   -1.2375    0.0000 O   0  0  0  0  0  0  0  0  0  0  0  0
    0.0000    0.0000    0.0000 R#  0  0  0  0  0  0  0  0  0  0  0  0
    0.0000   -2.4750    0.0000 R#  0  0  0  0  0  0  0  0  0  0  0  0
 13  1  1  0
  1  2  1  0
  2  3  1  0
  3  4  2  0
  4  5  1  0
  5  6  2  0
  6  7  1  0
  7  8  2  0
  3  8  1  0
  8  9  1  0
 10  9  1  0
 10  1  1  0
 10 11  1  6
 11 14  1  0
 11 12  2  0
M  RGP  2  13   1  14   2
V   13 *
V   14 *
M  END
>  <m_name>  (130) 
D-1,2,3,4-tetrahydro-3-isoquinolinecarboxylic acid

>  <symbol>  (130) 
D_Tic

>  <m_abbr>  (130) 
D_Tic

>  <m_type>  (130) 
aa

>  <m_subtype>  (130) 
non-natural

>  <m_Rgroups>  (130) 
H,OH,None,None

>  <m_RgroupIdx>  (130) 
12,13,None,None

>  <m_attachmentPointIdx>  (130) 
0,10,None,None

>  <natAnalog>  (130) 
X

>  <pdbName>  (130) 
DVF

$$$$

     RDKit          2D

 14 13  0  0  0  0  0  0  0  0999 V2000
    0.6430   -4.4293    0.0000 C   0  0  0  0  0  0  0  0  0  0  0  0
    1.2375   -5.0013    0.0000 C   0  0  0  0  0  0  0  0  0  0  0  0
    2.0301   -4.7725    0.0000 C   0  0  0  0  0  0  0  0  0  0  0  0
    2.6246   -5.3445    0.0000 C   0  0  0  0  0  0  0  0  0  0  0  0
    3.4172   -5.1157    0.0000 C   0  0  0  0  0  0  0  0  0  0  0  0
    4.0117   -5.6877    0.0000 C   0  0  0  0  0  0  0  0  0  0  0  0
    4.8044   -5.4589    0.0000 C   0  0  0  0  0  0  0  0  0  0  0  0
    5.3988   -6.0310    0.0000 C   0  0  0  0  0  0  0  0  0  0  0  0
    6.1915   -5.8021    0.0000 C   0  0  0  0  0  0  0  0  0  0  0  0
    6.7859   -6.3742    0.0000 N   0  0  0  0  0  0  0  0  0  0  0  0
    6.3896   -5.0013    0.0000 C   0  0  0  0  0  0  0  0  0  0  0  0
    7.1823   -4.7725    0.0000 O   0  0  0  0  0  0  0  0  0  0  0  0
    7.5786   -6.1454    0.0000 R#  0  0  0  0  0  0  0  0  0  0  0  0
    5.7951   -4.4293    0.0000 R#  0  0  0  0  0  0  0  0  0  0  0  0
  1  2  1  0
  2  3  1  0
  3  4  1  0
  4  5  1  0
  5  6  1  0
  6  7  1  0
  7  8  1  0
  9  8  1  1
  9 10  1  0
 10 13  1  0
  9 11  1  0
 11 14  1  0
 11 12  2  0
M  RGP  2  13   1  14   2
V   13 *
V   14 *
M  END
>  <m_name>  (131) 
2-Aminocapric acid

>  <symbol>  (131) 
Aca

>  <m_abbr>  (131) 
Aca

>  <m_type>  (131) 
aa

>  <m_subtype>  (131) 
non-natural

>  <m_Rgroups>  (131) 
H,OH,None,None

>  <m_RgroupIdx>  (131) 
12,13,None,None

>  <m_attachmentPointIdx>  (131) 
9,10,None,None

>  <natAnalog>  (131) 
X

>  <pdbName>  (131) 
AC3

$$$$

     RDKit          2D

 14 15  0  0  0  0  0  0  0  0999 V2000
    0.7145   -0.4125    0.0000 N   0  0  0  0  0  0  0  0  0  0  0  0
    1.4289    0.0000    0.0000 C   0  0  0  0  0  0  0  0  0  0  0  0
    2.1434   -0.4125    0.0000 C   0  0  0  0  0  0  0  0  0  0  0  0
    2.8579    0.0000    0.0000 C   0  0  0  0  0  0  0  0  0  0  0  0
    3.5724   -0.4125    0.0000 C   0  0  0  0  0  0  0  0  0  0  0  0
    3.5724   -1.2375    0.0000 C   0  0  0  0  0  0  0  0  0  0  0  0
    2.8579   -1.6500    0.0000 C   0  0  0  0  0  0  0  0  0  0  0  0
    2.1434   -1.2375    0.0000 C   0  0  0  0  0  0  0  0  0  0  0  0
    1.4289   -1.6500    0.0000 C   0  0  0  0  0  0  0  0  0  0  0  0
    0.7145   -1.2375    0.0000 C   0  0  0  0  0  0  0  0  0  0  0  0
    0.0000   -1.6500    0.0000 C   0  0  0  0  0  0  0  0  0  0  0  0
   -0.7145   -1.2375    0.0000 O   0  0  0  0  0  0  0  0  0  0  0  0
    0.0000    0.0000    0.0000 R#  0  0  0  0  0  0  0  0  0  0  0  0
    0.0000   -2.4750    0.0000 R#  0  0  0  0  0  0  0  0  0  0  0  0
 13  1  1  0
  1  2  1  0
  2  3  1  0
  3  4  2  0
  4  5  1  0
  5  6  2  0
  6  7  1  0
  7  8  2  0
  3  8  1  0
  8  9  1  0
 10  9  1  0
 10  1  1  0
 10 11  1  1
 11 14  1  0
 11 12  2  0
M  RGP  2  13   1  14   2
V   13 *
V   14 *
M  END
>  <m_name>  (132) 
1,2,3,4-tetrahydro-3-isoquinolinecarboxylic acid

>  <symbol>  (132) 
Tic

>  <m_abbr>  (132) 
Tic

>  <m_type>  (132) 
aa

>  <m_subtype>  (132) 
non-natural

>  <m_Rgroups>  (132) 
H,OH,None,None

>  <m_RgroupIdx>  (132) 
12,13,None,None

>  <m_attachmentPointIdx>  (132) 
0,10,None,None

>  <natAnalog>  (132) 
X

>  <pdbName>  (132) 
TIE

$$$$

     RDKit          2D

 12 11  0  0  0  0  0  0  0  0999 V2000
    3.7125   -3.5724    0.0000 N   0  0  0  0  0  0  0  0  0  0  0  0
    3.3000   -2.8579    0.0000 C   0  0  0  0  0  0  0  0  0  0  0  0
    2.4750   -2.8579    0.0000 C   0  0  0  0  0  0  0  0  0  0  0  0
    2.0625   -2.1434    0.0000 C   0  0  0  0  0  0  0  0  0  0  0  0
    1.2375   -2.1434    0.0000 C   0  0  0  0  0  0  0  0  0  0  0  0
    0.8250   -1.4289    0.0000 C   0  0  0  0  0  0  0  0  0  0  0  0
    1.2375   -0.7145    0.0000 O   0  0  0  0  0  0  0  0  0  0  0  0
    3.7125   -2.1434    0.0000 C   0  0  0  0  0  0  0  0  0  0  0  0
    4.5375   -2.1434    0.0000 O   0  0  0  0  0  0  0  0  0  0  0  0
    4.5375   -3.5724    0.0000 R#  0  0  0  0  0  0  0  0  0  0  0  0
    0.0000   -1.4289    0.0000 R#  0  0  0  0  0  0  0  0  0  0  0  0
    3.3000   -1.4289    0.0000 R#  0  0  0  0  0  0  0  0  0  0  0  0
 10  1  1  0
  2  1  1  0
  2  3  1  1
  3  4  1  0
  4  5  1  0
  5  6  1  0
  6 11  1  0
  6  7  2  0
  2  8  1  0
  8 12  1  0
  8  9  2  0
M  RGP  3  10   1  11   3  12   2
V   10 *
V   11 *
V   12 *
M  END
>  <m_name>  (133) 
2-Aminoadipic acid

>  <symbol>  (133) 
Aad

>  <m_abbr>  (133) 
Aad

>  <m_type>  (133) 
aa

>  <m_subtype>  (133) 
non-natural

>  <m_Rgroups>  (133) 
H,OH,OH,None

>  <m_RgroupIdx>  (133) 
9,11,10,None

>  <m_attachmentPointIdx>  (133) 
0,7,5,None

>  <natAnalog>  (133) 
X

>  <pdbName>  (133) 
AD0

$$$$

     RDKit          2D

 13 12  0  0  0  0  0  0  0  0999 V2000
    0.6974   -2.9487    0.0000 N   0  0  0  0  0  0  0  0  0  0  0  0
    1.2375   -3.5724    0.0000 C   0  0  0  0  0  0  0  0  0  0  0  0
    0.9675   -4.3519    0.0000 O   0  0  0  0  0  0  0  0  0  0  0  0
    2.0476   -3.4164    0.0000 N   0  0  0  0  0  0  0  0  0  0  0  0
    2.5877   -4.0401    0.0000 C   0  0  0  0  0  0  0  0  0  0  0  0
    3.3979   -3.8842    0.0000 C   0  0  0  0  0  0  0  0  0  0  0  0
    3.9379   -4.5078    0.0000 C   0  0  0  0  0  0  0  0  0  0  0  0
    4.7481   -4.3519    0.0000 C   0  0  0  0  0  0  0  0  0  0  0  0
    5.2882   -4.9755    0.0000 N   0  0  0  0  0  0  0  0  0  0  0  0
    5.0181   -3.5724    0.0000 C   0  0  0  0  0  0  0  0  0  0  0  0
    5.8283   -3.4164    0.0000 O   0  0  0  0  0  0  0  0  0  0  0  0
    6.0983   -4.8196    0.0000 R#  0  0  0  0  0  0  0  0  0  0  0  0
    4.4780   -2.9487    0.0000 R#  0  0  0  0  0  0  0  0  0  0  0  0
  1  2  1  0
  2  3  2  0
  2  4  1  0
  4  5  1  0
  5  6  1  0
  6  7  1  0
  8  7  1  1
  8  9  1  0
  9 12  1  0
  8 10  1  0
 10 13  1  0
 10 11  2  0
M  RGP  2  12   1  13   2
V   12 *
V   13 *
M  END
>  <m_name>  (134) 
Citrullin

>  <symbol>  (134) 
Cit

>  <m_abbr>  (134) 
Cit

>  <m_type>  (134) 
aa

>  <m_subtype>  (134) 
non-natural

>  <m_Rgroups>  (134) 
H,OH,None,None

>  <m_RgroupIdx>  (134) 
11,12,None,None

>  <m_attachmentPointIdx>  (134) 
8,9,None,None

>  <natAnalog>  (134) 
X

>  <pdbName>  (134) 
CIF

$$$$

     RDKit          2D

  8  8  0  0  0  0  0  0  0  0999 V2000
    0.4125    0.9959    0.0000 N   0  0  0  0  0  0  0  0  0  0  0  0
    0.9959    0.4125    0.0000 C   0  0  0  0  0  0  0  0  0  0  0  0
    0.4125   -0.1709    0.0000 C   0  0  0  0  0  0  0  0  0  0  0  0
   -0.1709    0.4125    0.0000 C   0  0  0  0  0  0  0  0  0  0  0  0
   -0.9959    0.4125    0.0000 C   0  0  0  0  0  0  0  0  0  0  0  0
   -1.4084    1.1270    0.0000 O   0  0  0  0  0  0  0  0  0  0  0  0
    0.4125    1.8209    0.0000 R#  0  0  0  0  0  0  0  0  0  0  0  0
   -1.4084   -0.3020    0.0000 R#  0  0  0  0  0  0  0  0  0  0  0  0
  7  1  1  0
  1  2  1  0
  2  3  1  0
  4  3  1  0
  4  1  1  0
  4  5  1  1
  5  8  1  0
  5  6  2  0
M  RGP  2   7   1   8   2
V    7 *
V    8 *
M  END
>  <m_name>  (135) 
2-Carboxyazetidine

>  <symbol>  (135) 
Aze

>  <m_abbr>  (135) 
Aze

>  <m_type>  (135) 
aa

>  <m_subtype>  (135) 
non-natural

>  <m_Rgroups>  (135) 
H,OH,None,None

>  <m_RgroupIdx>  (135) 
6,7,None,None

>  <m_attachmentPointIdx>  (135) 
0,4,None,None

>  <natAnalog>  (135) 
X

>  <pdbName>  (135) 
AEB

$$$$

     RDKit          2D

 10 10  0  0  0  0  0  0  0  0999 V2000
    0.0157    1.7274    0.0000 N   0  0  0  0  0  0  0  0  0  0  0  0
    0.5678    1.1143    0.0000 C   0  0  0  0  0  0  0  0  0  0  0  0
    1.2352    0.6294    0.0000 C   0  0  0  0  0  0  0  0  0  0  0  0
    0.9803   -0.1553    0.0000 C   0  0  0  0  0  0  0  0  0  0  0  0
    0.1553   -0.1553    0.0000 C   0  0  0  0  0  0  0  0  0  0  0  0
   -0.0997    0.6294    0.0000 C   0  0  0  0  0  0  0  0  0  0  0  0
    1.1198    1.7274    0.0000 C   0  0  0  0  0  0  0  0  0  0  0  0
    0.8649    2.5120    0.0000 O   0  0  0  0  0  0  0  0  0  0  0  0
    0.2707    2.5120    0.0000 R#  0  0  0  0  0  0  0  0  0  0  0  0
    1.9268    1.5559    0.0000 R#  0  0  0  0  0  0  0  0  0  0  0  0
  9  1  1  0
  1  2  1  0
  2  3  1  0
  3  4  1  0
  4  5  1  0
  5  6  1  0
  2  6  1  0
  2  7  1  0
  7 10  1  0
  7  8  2  0
M  RGP  2   9   1  10   2
V    9 *
V   10 *
M  END
>  <m_name>  (136) 
1-Amino-1-carboxycyclopentane

>  <symbol>  (136) 
Ac5c

>  <m_abbr>  (136) 
Ac5c

>  <m_type>  (136) 
aa

>  <m_subtype>  (136) 
non-natural

>  <m_Rgroups>  (136) 
H,OH,None,None

>  <m_RgroupIdx>  (136) 
8,9,None,None

>  <m_attachmentPointIdx>  (136) 
0,6,None,None

>  <natAnalog>  (136) 
X

>  <pdbName>  (136) 
AEC

$$$$

     RDKit          2D

  8  7  0  0  0  0  0  0  0  0999 V2000
    0.5230    1.1270    0.0000 C   0  0  0  0  0  0  0  0  0  0  0  0
    1.2375    0.7145    0.0000 C   0  0  0  0  0  0  0  0  0  0  0  0
    1.9520    0.3020    0.0000 C   0  0  0  0  0  0  0  0  0  0  0  0
    1.6500    1.4289    0.0000 N   0  0  0  0  0  0  0  0  0  0  0  0
    0.8250    0.0000    0.0000 C   0  0  0  0  0  0  0  0  0  0  0  0
    0.0000    0.0000    0.0000 O   0  0  0  0  0  0  0  0  0  0  0  0
    1.2375    2.1434    0.0000 R#  0  0  0  0  0  0  0  0  0  0  0  0
    1.2375   -0.7145    0.0000 R#  0  0  0  0  0  0  0  0  0  0  0  0
  1  2  1  0
  2  3  1  0
  2  4  1  0
  4  7  1  0
  2  5  1  0
  5  8  1  0
  5  6  2  0
M  RGP  2   7   1   8   2
V    7 *
V    8 *
M  END
>  <m_name>  (137) 
Alpha-aminoisobutyric acid (2-aminoalanine)

>  <symbol>  (137) 
Aib

>  <m_abbr>  (137) 
Aib

>  <m_type>  (137) 
aa

>  <m_subtype>  (137) 
non-natural

>  <m_Rgroups>  (137) 
H,OH,None,None

>  <m_RgroupIdx>  (137) 
6,7,None,None

>  <m_attachmentPointIdx>  (137) 
3,4,None,None

>  <natAnalog>  (137) 
X

>  <pdbName>  (137) 
AIB

$$$$

     RDKit          2D

 13 13  0  0  0  0  0  0  0  0999 V2000
    0.0000    3.3000    0.0000 N   0  0  0  0  0  0  0  0  0  0  0  0
    0.0000    2.4750    0.0000 C   0  0  0  0  0  0  0  0  0  0  0  0
    0.7145    2.0625    0.0000 C   0  0  0  0  0  0  0  0  0  0  0  0
    0.7145    1.2375    0.0000 C   0  0  0  0  0  0  0  0  0  0  0  0
    1.4289    0.8250    0.0000 C   0  0  0  0  0  0  0  0  0  0  0  0
    1.4289    0.0000    0.0000 C   0  0  0  0  0  0  0  0  0  0  0  0
    0.7145   -0.4125    0.0000 C   0  0  0  0  0  0  0  0  0  0  0  0
    0.0000    0.0000    0.0000 C   0  0  0  0  0  0  0  0  0  0  0  0
    0.0000    0.8250    0.0000 N   0  0  0  0  0  0  0  0  0  0  0  0
   -0.7145    2.0625    0.0000 C   0  0  0  0  0  0  0  0  0  0  0  0
   -1.4289    2.4750    0.0000 O   0  0  0  0  0  0  0  0  0  0  0  0
   -0.7145    3.7125    0.0000 R#  0  0  0  0  0  0  0  0  0  0  0  0
   -0.7145    1.2375    0.0000 R#  0  0  0  0  0  0  0  0  0  0  0  0
 12  1  1  0
  2  1  1  0
  2  3  1  6
  3  4  1  0
  4  5  2  0
  5  6  1  0
  6  7  2  0
  7  8  1  0
  8  9  2  0
  4  9  1  0
  2 10  1  0
 10 13  1  0
 10 11  2  0
M  RGP  2  12   1  13   2
V   12 *
V   13 *
M  END
>  <m_name>  (138) 
D-3-(2-Pyridyl)-alanine

>  <symbol>  (138) 
D_2Pal

>  <m_abbr>  (138) 
D_2Pal

>  <m_type>  (138) 
aa

>  <m_subtype>  (138) 
non-natural

>  <m_Rgroups>  (138) 
H,OH,None,None

>  <m_RgroupIdx>  (138) 
11,12,None,None

>  <m_attachmentPointIdx>  (138) 
0,9,None,None

>  <natAnalog>  (138) 
X

>  <pdbName>  (138) 
DVI

$$$$

     RDKit          2D

  8  7  0  0  0  0  0  0  0  0999 V2000
    0.0000   -1.4289    0.0000 C   0  0  0  0  0  0  0  0  0  0  0  0
    0.8250   -1.4289    0.0000 C   0  0  0  0  0  0  0  0  0  0  0  0
    1.2375   -0.7145    0.0000 C   0  0  0  0  0  0  0  0  0  0  0  0
    2.0625   -0.7145    0.0000 N   0  0  0  0  0  0  0  0  0  0  0  0
    0.8250    0.0000    0.0000 C   0  0  0  0  0  0  0  0  0  0  0  0
    0.0000    0.0000    0.0000 O   0  0  0  0  0  0  0  0  0  0  0  0
    2.4750    0.0000    0.0000 R#  0  0  0  0  0  0  0  0  0  0  0  0
    1.2375    0.7145    0.0000 R#  0  0  0  0  0  0  0  0  0  0  0  0
  1  2  1  0
  3  2  1  6
  3  4  1  0
  4  7  1  0
  3  5  1  0
  5  8  1  0
  5  6  2  0
M  RGP  2   7   1   8   2
V    7 *
V    8 *
M  END
>  <m_name>  (139) 
D-2-aminobutanoic acid

>  <symbol>  (139) 
D_Abu

>  <m_abbr>  (139) 
D_Abu

>  <m_type>  (139) 
aa

>  <m_subtype>  (139) 
non-natural

>  <m_Rgroups>  (139) 
H,OH,None,None

>  <m_RgroupIdx>  (139) 
6,7,None,None

>  <m_attachmentPointIdx>  (139) 
3,4,None,None

>  <natAnalog>  (139) 
X

>  <pdbName>  (139) 
DVO

$$$$

     RDKit          2D

  9  8  0  0  0  0  0  0  0  0999 V2000
    1.9520   -1.9520    0.0000 N   0  0  0  0  0  0  0  0  0  0  0  0
    1.9520   -1.1270    0.0000 C   0  0  0  0  0  0  0  0  0  0  0  0
    1.2375   -0.7145    0.0000 C   0  0  0  0  0  0  0  0  0  0  0  0
    1.2375    0.1105    0.0000 N   0  0  0  0  0  0  0  0  0  0  0  0
    2.6664   -0.7145    0.0000 C   0  0  0  0  0  0  0  0  0  0  0  0
    3.3809   -1.1270    0.0000 O   0  0  0  0  0  0  0  0  0  0  0  0
    2.6664   -2.3645    0.0000 R#  0  0  0  0  0  0  0  0  0  0  0  0
    0.5230    0.5230    0.0000 R#  0  0  0  0  0  0  0  0  0  0  0  0
    2.6664    0.1105    0.0000 R#  0  0  0  0  0  0  0  0  0  0  0  0
  7  1  1  0
  2  1  1  0
  2  3  1  6
  3  4  1  0
  4  8  1  0
  2  5  1  0
  5  9  1  0
  5  6  2  0
M  RGP  3   7   1   8   3   9   2
V    7 *
V    8 *
V    9 *
M  END
>  <m_name>  (140) 
D-2,3-diaminopropanoic acid

>  <symbol>  (140) 
D_Dap

>  <m_abbr>  (140) 
D_Dap

>  <m_type>  (140) 
aa

>  <m_subtype>  (140) 
non-natural

>  <m_Rgroups>  (140) 
H,OH,H,None

>  <m_RgroupIdx>  (140) 
6,8,7,None

>  <m_attachmentPointIdx>  (140) 
0,4,3,None

>  <natAnalog>  (140) 
X

>  <pdbName>  (140) 
DVS

$$$$

     RDKit          2D

 14 13  0  0  0  0  0  0  0  0999 V2000
    5.2882   -4.9755    0.0000 N   0  0  0  0  0  0  0  0  0  0  0  0
    4.7481   -4.3519    0.0000 C   0  0  0  0  0  0  0  0  0  0  0  0
    3.9379   -4.5078    0.0000 C   0  0  0  0  0  0  0  0  0  0  0  0
    3.3979   -3.8842    0.0000 C   0  0  0  0  0  0  0  0  0  0  0  0
    2.5877   -4.0401    0.0000 C   0  0  0  0  0  0  0  0  0  0  0  0
    2.0476   -3.4164    0.0000 C   0  0  0  0  0  0  0  0  0  0  0  0
    1.2375   -3.5724    0.0000 C   0  0  0  0  0  0  0  0  0  0  0  0
    0.6974   -2.9487    0.0000 C   0  0  0  0  0  0  0  0  0  0  0  0
    0.9675   -2.1692    0.0000 O   0  0  0  0  0  0  0  0  0  0  0  0
    5.0181   -3.5724    0.0000 C   0  0  0  0  0  0  0  0  0  0  0  0
    5.8283   -3.4164    0.0000 O   0  0  0  0  0  0  0  0  0  0  0  0
    6.0983   -4.8196    0.0000 R#  0  0  0  0  0  0  0  0  0  0  0  0
   -0.1127   -3.1046    0.0000 R#  0  0  0  0  0  0  0  0  0  0  0  0
    4.4780   -2.9487    0.0000 R#  0  0  0  0  0  0  0  0  0  0  0  0
 12  1  1  0
  2  1  1  0
  2  3  1  1
  3  4  1  0
  4  5  1  0
  5  6  1  0
  6  7  1  0
  7  8  1  0
  8 13  1  0
  8  9  2  0
  2 10  1  0
 10 14  1  0
 10 11  2  0
M  RGP  3  12   1  13   3  14   2
V   12 *
V   13 *
V   14 *
M  END
>  <m_name>  (141) 
2-Aminosuberic acid

>  <symbol>  (141) 
Asu

>  <m_abbr>  (141) 
Asu

>  <m_type>  (141) 
aa

>  <m_subtype>  (141) 
non-natural

>  <m_Rgroups>  (141) 
H,OH,OH,None

>  <m_RgroupIdx>  (141) 
11,13,12,None

>  <m_attachmentPointIdx>  (141) 
0,9,7,None

>  <natAnalog>  (141) 
X

>  <pdbName>  (141) 
AS5

$$$$

     RDKit          2D

 11 11  0  0  0  0  0  0  0  0999 V2000
    0.0000    3.3000    0.0000 C   0  0  0  0  0  0  0  0  0  0  0  0
    0.7145    3.7125    0.0000 O   0  0  0  0  0  0  0  0  0  0  0  0
    0.0000    2.4750    0.0000 O   0  0  0  0  0  0  0  0  0  0  0  0
    0.7145    2.0625    0.0000 C   0  0  0  0  0  0  0  0  0  0  0  0
    0.7145    1.2375    0.0000 C   0  0  0  0  0  0  0  0  0  0  0  0
    1.4289    0.8250    0.0000 C   0  0  0  0  0  0  0  0  0  0  0  0
    1.4289    0.0000    0.0000 C   0  0  0  0  0  0  0  0  0  0  0  0
    0.7145   -0.4125    0.0000 C   0  0  0  0  0  0  0  0  0  0  0  0
    0.0000    0.0000    0.0000 C   0  0  0  0  0  0  0  0  0  0  0  0
    0.0000    0.8250    0.0000 C   0  0  0  0  0  0  0  0  0  0  0  0
   -0.7145    3.7125    0.0000 R#  0  0  0  0  0  0  0  0  0  0  0  0
 11  1  1  0
  1  2  2  0
  1  3  1  0
  3  4  1  0
  4  5  1  0
  5  6  2  0
  6  7  1  0
  7  8  2  0
  8  9  1  0
  9 10  2  0
  5 10  1  0
M  RGP  1  11   2
V   11 *
M  END
>  <m_name>  (142) 
Carboxybenzyl

>  <symbol>  (142) 
Cbz

>  <m_abbr>  (142) 
Cbz

>  <m_type>  (142) 
cap

>  <m_subtype>  (142) 
cap

>  <m_Rgroups>  (142) 
None,OH,None,None

>  <m_RgroupIdx>  (142) 
None,10,None,None

>  <m_attachmentPointIdx>  (142) 
None,0,None,None

>  <natAnalog>  (142) 
X

>  <pdbName>  (142) 
CBS

$$$$

     RDKit          2D

  3  2  0  0  0  0  0  0  0  0999 V2000
    1.2375   -0.7145    0.0000 C   0  0  0  0  0  0  0  0  0  0  0  0
    1.9520   -1.1270    0.0000 C   0  0  0  0  0  0  0  0  0  0  0  0
    2.6664   -0.7145    0.0000 R#  0  0  0  0  0  0  0  0  0  0  0  0
  1  2  1  0
  2  3  1  0
M  RGP  1   3   1
V    3 *
M  END
>  <m_name>  (143) 
C-Terminal ethyl

>  <symbol>  (143) 
_Et

>  <m_abbr>  (143) 
_Et

>  <m_type>  (143) 
cap

>  <m_subtype>  (143) 
cap

>  <m_Rgroups>  (143) 
H,None,None,None

>  <m_RgroupIdx>  (143) 
2,None,None,None

>  <m_attachmentPointIdx>  (143) 
1,None,None,None

>  <natAnalog>  (143) 
X

>  <pdbName>  (143) 
ETJ

$$$$

     RDKit          2D

  4  3  0  0  0  0  0  0  0  0999 V2000
    2.0625   -0.7145    0.0000 C   0  0  0  0  0  0  0  0  0  0  0  0
    1.2375   -0.7145    0.0000 C   0  0  0  0  0  0  0  0  0  0  0  0
    0.8250    0.0000    0.0000 N   0  0  0  0  0  0  0  0  0  0  0  0
    0.0000    0.0000    0.0000 R#  0  0  0  0  0  0  0  0  0  0  0  0
  1  2  1  0
  2  3  1  0
  3  4  1  0
M  RGP  1   4   1
V    4 *
M  END
>  <m_name>  (144) 
Ethanamine

>  <symbol>  (144) 
NHEt

>  <m_abbr>  (144) 
NHEt

>  <m_type>  (144) 
cap

>  <m_subtype>  (144) 
cap

>  <m_Rgroups>  (144) 
H,None,None,None

>  <m_RgroupIdx>  (144) 
3,None,None,None

>  <m_attachmentPointIdx>  (144) 
2,None,None,None

>  <natAnalog>  (144) 
X

>  <pdbName>  (144) 
NHA

$$$$

     RDKit          2D

  4  3  0  0  0  0  0  0  0  0999 V2000
    2.0625   -0.7145    0.0000 C   0  0  0  0  0  0  0  0  0  0  0  0
    1.2375   -0.7145    0.0000 C   0  0  0  0  0  0  0  0  0  0  0  0
    0.8250    0.0000    0.0000 O   0  0  0  0  0  0  0  0  0  0  0  0
    0.0000    0.0000    0.0000 R#  0  0  0  0  0  0  0  0  0  0  0  0
  1  2  1  0
  2  3  1  0
  3  4  1  0
M  RGP  1   4   1
V    4 *
M  END
>  <m_name>  (145) 
Ethanol

>  <symbol>  (145) 
OEt

>  <m_abbr>  (145) 
OEt

>  <m_type>  (145) 
cap

>  <m_subtype>  (145) 
cap

>  <m_Rgroups>  (145) 
H,None,None,None

>  <m_RgroupIdx>  (145) 
3,None,None,None

>  <m_attachmentPointIdx>  (145) 
2,None,None,None

>  <natAnalog>  (145) 
X

>  <pdbName>  (145) 
OEI

$$$$

     RDKit          2D

  3  2  0  0  0  0  0  0  0  0999 V2000
    1.2375   -0.7145    0.0000 C   0  0  0  0  0  0  0  0  0  0  0  0
    1.9520   -1.1270    0.0000 O   0  0  0  0  0  0  0  0  0  0  0  0
    2.6664   -0.7145    0.0000 R#  0  0  0  0  0  0  0  0  0  0  0  0
  1  2  1  0
  2  3  1  0
M  RGP  1   3   1
V    3 *
M  END
>  <m_name>  (146) 
C-Terminal methanol

>  <symbol>  (146) 
_OMe

>  <m_abbr>  (146) 
_OMe

>  <m_type>  (146) 
cap

>  <m_subtype>  (146) 
cap

>  <m_Rgroups>  (146) 
H,None,None,None

>  <m_RgroupIdx>  (146) 
2,None,None,None

>  <m_attachmentPointIdx>  (146) 
1,None,None,None

>  <natAnalog>  (146) 
X

>  <pdbName>  (146) 
OML

$$$$

     RDKit          2D

  6  5  0  0  0  0  0  0  0  0999 V2000
    1.6500   -1.4289    0.0000 C   0  0  0  0  0  0  0  0  0  0  0  0
    1.2375   -0.7145    0.0000 C   0  0  0  0  0  0  0  0  0  0  0  0
    1.9520   -0.3020    0.0000 C   0  0  0  0  0  0  0  0  0  0  0  0
    0.5230   -1.1270    0.0000 C   0  0  0  0  0  0  0  0  0  0  0  0
    0.8250    0.0000    0.0000 O   0  0  0  0  0  0  0  0  0  0  0  0
    0.0000    0.0000    0.0000 R#  0  0  0  0  0  0  0  0  0  0  0  0
  1  2  1  0
  2  3  1  0
  2  4  1  0
  2  5  1  0
  5  6  1  0
M  RGP  1   6   1
V    6 *
M  END
>  <m_name>  (147) 
O-tert-Butyl

>  <symbol>  (147) 
OtBu

>  <m_abbr>  (147) 
OtBu

>  <m_type>  (147) 
cap

>  <m_subtype>  (147) 
cap

>  <m_Rgroups>  (147) 
H,None,None,None

>  <m_RgroupIdx>  (147) 
5,None,None,None

>  <m_attachmentPointIdx>  (147) 
4,None,None,None

>  <natAnalog>  (147) 
X

>  <pdbName>  (147) 
OTI

$$$$

     RDKit          2D

 11 11  0  0  0  0  0  0  0  0999 V2000
    0.7145    2.0625    0.0000 C   0  0  0  0  0  0  0  0  0  0  0  0
    0.7145    1.2375    0.0000 C   0  0  0  0  0  0  0  0  0  0  0  0
    1.4289    0.8250    0.0000 C   0  0  0  0  0  0  0  0  0  0  0  0
    1.4289    0.0000    0.0000 C   0  0  0  0  0  0  0  0  0  0  0  0
    0.7145   -0.4125    0.0000 C   0  0  0  0  0  0  0  0  0  0  0  0
    0.0000    0.0000    0.0000 C   0  0  0  0  0  0  0  0  0  0  0  0
    0.0000    0.8250    0.0000 C   0  0  0  0  0  0  0  0  0  0  0  0
    0.7145   -1.2375    0.0000 S   0  0  0  0  0  0  0  0  0  0  0  0
   -0.1105   -1.2375    0.0000 O   0  0  0  0  0  0  0  0  0  0  0  0
    1.5395   -1.2375    0.0000 O   0  0  0  0  0  0  0  0  0  0  0  0
    0.7145   -2.0625    0.0000 R#  0  0  0  0  0  0  0  0  0  0  0  0
  1  2  1  0
  2  3  2  0
  3  4  1  0
  4  5  2  0
  5  6  1  0
  6  7  2  0
  2  7  1  0
  5  8  1  0
  8 11  1  0
  8  9  2  0
  8 10  2  0
M  RGP  1  11   2
V   11 *
M  END
>  <m_name>  (148) 
Tosyl

>  <symbol>  (148) 
Tos

>  <m_abbr>  (148) 
Tos

>  <m_type>  (148) 
cap

>  <m_subtype>  (148) 
cap

>  <m_Rgroups>  (148) 
None,OH,None,None

>  <m_RgroupIdx>  (148) 
None,10,None,None

>  <m_attachmentPointIdx>  (148) 
None,7,None,None

>  <natAnalog>  (148) 
X

>  <pdbName>  (148) 
TOO

$$$$

     RDKit          2D

  9  9  0  0  0  0  0  0  0  0999 V2000
    0.5678    1.1143    0.0000 N   0  0  0  0  0  0  0  0  0  0  0  0
    1.2352    0.6294    0.0000 C   0  0  0  0  0  0  0  0  0  0  0  0
    0.9803   -0.1553    0.0000 S   0  0  0  0  0  0  0  0  0  0  0  0
    0.1553   -0.1553    0.0000 C   0  0  0  0  0  0  0  0  0  0  0  0
   -0.0997    0.6294    0.0000 C   0  0  0  0  0  0  0  0  0  0  0  0
   -0.8843    0.8843    0.0000 C   0  0  0  0  0  0  0  0  0  0  0  0
   -1.0558    1.6913    0.0000 O   0  0  0  0  0  0  0  0  0  0  0  0
    0.5678    1.9393    0.0000 R#  0  0  0  0  0  0  0  0  0  0  0  0
   -1.4974    0.3323    0.0000 R#  0  0  0  0  0  0  0  0  0  0  0  0
  8  1  1  0
  1  2  1  0
  2  3  1  0
  3  4  1  0
  5  4  1  0
  5  1  1  0
  5  6  1  6
  6  9  1  0
  6  7  2  0
M  RGP  2   8   1   9   2
V    8 *
V    9 *
M  END
>  <m_name>  (149) 
(4S)-1,3-thiazolidine-4-carboxylic acid

>  <symbol>  (149) 
D_Thz

>  <m_abbr>  (149) 
D_Thz

>  <m_type>  (149) 
aa

>  <m_subtype>  (149) 
non-natural

>  <m_Rgroups>  (149) 
H,OH,None,None

>  <m_RgroupIdx>  (149) 
7,8,None,None

>  <m_attachmentPointIdx>  (149) 
0,5,None,None

>  <natAnalog>  (149) 
X

>  <pdbName>  (149) 
DVT

$$$$

     RDKit          2D

 18 20  0  0  0  0  0  0  0  0999 V2000
    1.2195    3.5730    0.0000 C   0  0  0  0  0  0  0  0  0  0  0  0
    1.9339    3.9855    0.0000 O   0  0  0  0  0  0  0  0  0  0  0  0
    1.2195    2.7480    0.0000 O   0  0  0  0  0  0  0  0  0  0  0  0
    1.9339    2.3355    0.0000 C   0  0  0  0  0  0  0  0  0  0  0  0
    1.9339    1.5105    0.0000 C   0  0  0  0  0  0  0  0  0  0  0  0
    2.6014    1.0256    0.0000 C   0  0  0  0  0  0  0  0  0  0  0  0
    3.4084    1.1971    0.0000 C   0  0  0  0  0  0  0  0  0  0  0  0
    3.9604    0.5840    0.0000 C   0  0  0  0  0  0  0  0  0  0  0  0
    3.7054   -0.2006    0.0000 C   0  0  0  0  0  0  0  0  0  0  0  0
    2.8985   -0.3721    0.0000 C   0  0  0  0  0  0  0  0  0  0  0  0
    2.3464    0.2410    0.0000 C   0  0  0  0  0  0  0  0  0  0  0  0
    1.5214    0.2410    0.0000 C   0  0  0  0  0  0  0  0  0  0  0  0
    0.9694   -0.3721    0.0000 C   0  0  0  0  0  0  0  0  0  0  0  0
    0.1624   -0.2006    0.0000 C   0  0  0  0  0  0  0  0  0  0  0  0
   -0.0925    0.5840    0.0000 C   0  0  0  0  0  0  0  0  0  0  0  0
    0.4595    1.1971    0.0000 C   0  0  0  0  0  0  0  0  0  0  0  0
    1.2665    1.0256    0.0000 C   0  0  0  0  0  0  0  0  0  0  0  0
    0.5050    3.9855    0.0000 R#  0  0  0  0  0  0  0  0  0  0  0  0
 18  1  1  0
  1  2  2  0
  1  3  1  0
  3  4  1  0
  4  5  1  0
  5  6  1  0
  6  7  2  0
  7  8  1  0
  8  9  2  0
  9 10  1  0
 10 11  2  0
  6 11  1  0
 11 12  1  0
 12 13  2  0
 13 14  1  0
 14 15  2  0
 15 16  1  0
 16 17  2  0
  5 17  1  0
 12 17  1  0
M  RGP  1  18   2
V   18 *
M  END
>  <m_name>  (150) 
Fluorenylmethoxycarbonyl

>  <symbol>  (150) 
fmoc

>  <m_abbr>  (150) 
fmoc

>  <m_type>  (150) 
cap

>  <m_subtype>  (150) 
cap

>  <m_Rgroups>  (150) 
None,OH,None,None

>  <m_RgroupIdx>  (150) 
None,17,None,None

>  <m_attachmentPointIdx>  (150) 
None,0,None,None

>  <natAnalog>  (150) 
X

>  <pdbName>  (150) 
FM3

$$$$

     RDKit          2D

  7  6  0  0  0  0  0  0  0  0999 V2000
    2.0625    0.7145    0.0000 C   0  0  0  0  0  0  0  0  0  0  0  0
    1.2375    0.7145    0.0000 C   0  0  0  0  0  0  0  0  0  0  0  0
    0.8250    1.4289    0.0000 S   0  0  0  0  0  0  0  0  0  0  0  0
    0.8250    0.0000    0.0000 C   0  0  0  0  0  0  0  0  0  0  0  0
    0.0000    0.0000    0.0000 O   0  0  0  0  0  0  0  0  0  0  0  0
    1.2375    2.1434    0.0000 R#  0  0  0  0  0  0  0  0  0  0  0  0
    1.2375   -0.7145    0.0000 R#  0  0  0  0  0  0  0  0  0  0  0  0
  2  1  1  1
  2  3  1  0
  3  6  1  0
  2  4  1  0
  4  7  1  0
  4  5  2  0
M  RGP  2   6   3   7   2
V    6 *
V    7 *
M  END
>  <m_name>  (151) 
(S)-2-Mercaptopropanoic acid

>  <symbol>  (151) 
Mpa

>  <m_abbr>  (151) 
Mpa

>  <m_type>  (151) 
cap

>  <m_subtype>  (151) 
cap

>  <m_Rgroups>  (151) 
None,OH,None,None

>  <m_RgroupIdx>  (151) 
None,6,5,None

>  <m_attachmentPointIdx>  (151) 
None,3,2,None

>  <natAnalog>  (151) 
X

>  <pdbName>  (151) 
MPF

$$$$

     RDKit          2D

  6  5  0  0  0  0  0  0  0  0999 V2000
    1.2375    2.1434    0.0000 C   0  0  0  0  0  0  0  0  0  0  0  0
    0.8250    1.4289    0.0000 C   0  0  0  0  0  0  0  0  0  0  0  0
    1.2375    0.7145    0.0000 C   0  0  0  0  0  0  0  0  0  0  0  0
    0.8250    0.0000    0.0000 C   0  0  0  0  0  0  0  0  0  0  0  0
    0.0000    0.0000    0.0000 O   0  0  0  0  0  0  0  0  0  0  0  0
    1.2375   -0.7145    0.0000 R#  0  0  0  0  0  0  0  0  0  0  0  0
  1  2  1  0
  2  3  1  0
  3  4  1  0
  4  6  1  0
  4  5  2  0
M  RGP  1   6   2
V    6 *
M  END
>  <m_name>  (152) 
Butanoic acid

>  <symbol>  (152) 
Bua

>  <m_abbr>  (152) 
Bua

>  <m_type>  (152) 
cap

>  <m_subtype>  (152) 
cap

>  <m_Rgroups>  (152) 
None,OH,None,None

>  <m_RgroupIdx>  (152) 
None,5,None,None

>  <m_attachmentPointIdx>  (152) 
None,3,None,None

>  <natAnalog>  (152) 
X

>  <pdbName>  (152) 
BUS

$$$$

     RDKit          2D

  5  4  0  0  0  0  0  0  0  0999 V2000
    0.8250    1.4289    0.0000 O   0  0  0  0  0  0  0  0  0  0  0  0
    1.2375    0.7145    0.0000 C   0  0  0  0  0  0  0  0  0  0  0  0
    0.8250    0.0000    0.0000 C   0  0  0  0  0  0  0  0  0  0  0  0
    0.0000    0.0000    0.0000 O   0  0  0  0  0  0  0  0  0  0  0  0
    1.2375   -0.7145    0.0000 R#  0  0  0  0  0  0  0  0  0  0  0  0
  1  2  1  0
  2  3  1  0
  3  5  1  0
  3  4  2  0
M  RGP  1   5   2
V    5 *
M  END
>  <m_name>  (153) 
Glycolic acid

>  <symbol>  (153) 
Glc

>  <m_abbr>  (153) 
Glc

>  <m_type>  (153) 
cap

>  <m_subtype>  (153) 
cap

>  <m_Rgroups>  (153) 
None,OH,None,None

>  <m_RgroupIdx>  (153) 
None,4,None,None

>  <m_attachmentPointIdx>  (153) 
None,2,None,None

>  <natAnalog>  (153) 
X

>  <pdbName>  (153) 
GAY

$$$$

     RDKit          2D

  6  5  0  0  0  0  0  0  0  0999 V2000
    1.2375    2.1434    0.0000 S   0  0  0  0  0  0  0  0  0  0  0  0
    0.8250    1.4289    0.0000 C   0  0  0  0  0  0  0  0  0  0  0  0
    1.2375    0.7145    0.0000 C   0  0  0  0  0  0  0  0  0  0  0  0
    0.8250    0.0000    0.0000 C   0  0  0  0  0  0  0  0  0  0  0  0
    0.0000    0.0000    0.0000 O   0  0  0  0  0  0  0  0  0  0  0  0
    1.2375   -0.7145    0.0000 R#  0  0  0  0  0  0  0  0  0  0  0  0
  1  2  1  0
  2  3  1  0
  3  4  1  0
  4  6  1  0
  4  5  2  0
M  RGP  1   6   2
V    6 *
M  END
>  <m_name>  (154) 
Deamino-Cysteine

>  <symbol>  (154) 
deamino_Cys

>  <m_abbr>  (154) 
deamino_Cys

>  <m_type>  (154) 
cap

>  <m_subtype>  (154) 
cap

>  <m_Rgroups>  (154) 
None,OH,None,None

>  <m_RgroupIdx>  (154) 
None,5,None,None

>  <m_attachmentPointIdx>  (154) 
None,3,None,None

>  <natAnalog>  (154) 
C

>  <pdbName>  (154) 
DVU

$$$$

     RDKit          2D

  8  7  0  0  0  0  0  0  0  0999 V2000
    1.7605    1.8414    0.0000 O   0  0  0  0  0  0  0  0  0  0  0  0
    2.4750    1.4289    0.0000 C   0  0  0  0  0  0  0  0  0  0  0  0
    2.4750    0.6039    0.0000 O   0  0  0  0  0  0  0  0  0  0  0  0
    3.1895    1.8414    0.0000 C   0  0  0  0  0  0  0  0  0  0  0  0
    3.9039    1.4289    0.0000 C   0  0  0  0  0  0  0  0  0  0  0  0
    4.6184    1.8414    0.0000 C   0  0  0  0  0  0  0  0  0  0  0  0
    5.3329    1.4289    0.0000 N   0  0  0  0  0  0  0  0  0  0  0  0
    6.0474    1.8414    0.0000 R#  0  0  0  0  0  0  0  0  0  0  0  0
  1  2  1  0
  2  3  2  0
  2  4  1  0
  4  5  1  0
  5  6  1  0
  6  7  1  0
  7  8  1  0
M  RGP  1   8   1
V    8 *
M  END
>  <m_name>  (155) 
4-aminobutanoic acid

>  <symbol>  (155) 
deamino_Dab

>  <m_abbr>  (155) 
deamino_Dab

>  <m_type>  (155) 
cap

>  <m_subtype>  (155) 
cap

>  <m_Rgroups>  (155) 
H,None,None,None

>  <m_RgroupIdx>  (155) 
7,None,None,None

>  <m_attachmentPointIdx>  (155) 
6,None,None,None

>  <natAnalog>  (155) 
X

>  <pdbName>  (155) 
DVV

$$$$

     RDKit          2D

  6  5  0  0  0  0  0  0  0  0999 V2000
    2.0625   -0.7145    0.0000 C   0  0  0  0  0  0  0  0  0  0  0  0
    1.6500   -1.4289    0.0000 O   0  0  0  0  0  0  0  0  0  0  0  0
    1.6500    0.0000    0.0000 C   0  0  0  0  0  0  0  0  0  0  0  0
    0.8250    0.0000    0.0000 C   0  0  0  0  0  0  0  0  0  0  0  0
    0.0000    0.0000    0.0000 N   0  0  0  0  0  0  0  0  0  0  0  0
    2.8875   -0.7145    0.0000 R#  0  0  0  0  0  0  0  0  0  0  0  0
  6  1  1  0
  1  2  2  0
  1  3  1  0
  3  4  1  0
  4  5  3  0
M  RGP  1   6   2
V    6 *
M  END
>  <m_name>  (156) 
2-cyanoacetic acid

>  <symbol>  (156) 
deamino_Gly_CN

>  <m_abbr>  (156) 
deamino_Gly_CN

>  <m_type>  (156) 
cap

>  <m_subtype>  (156) 
cap

>  <m_Rgroups>  (156) 
None,OH,None,None

>  <m_RgroupIdx>  (156) 
None,5,None,None

>  <m_attachmentPointIdx>  (156) 
None,0,None,None

>  <natAnalog>  (156) 
G

>  <pdbName>  (156) 
DVY

$$$$

     RDKit          2D

  9  9  0  0  0  0  0  0  0  0999 V2000
   -0.1467    2.3518    0.0000 C   0  0  0  0  0  0  0  0  0  0  0  0
   -0.8612    1.9393    0.0000 O   0  0  0  0  0  0  0  0  0  0  0  0
    0.5678    1.9393    0.0000 C   0  0  0  0  0  0  0  0  0  0  0  0
    0.5678    1.1143    0.0000 C   0  0  0  0  0  0  0  0  0  0  0  0
    1.2352    0.6294    0.0000 C   0  0  0  0  0  0  0  0  0  0  0  0
    0.9803   -0.1553    0.0000 C   0  0  0  0  0  0  0  0  0  0  0  0
    0.1553   -0.1553    0.0000 C   0  0  0  0  0  0  0  0  0  0  0  0
   -0.0997    0.6294    0.0000 C   0  0  0  0  0  0  0  0  0  0  0  0
   -0.1467    3.1768    0.0000 R#  0  0  0  0  0  0  0  0  0  0  0  0
  9  1  1  0
  1  2  2  0
  1  3  1  0
  3  4  1  0
  4  5  1  0
  5  6  1  0
  6  7  1  0
  7  8  1  0
  4  8  1  0
M  RGP  1   9   2
V    9 *
M  END
>  <m_name>  (157) 
2-cyclopentylacetic acid

>  <symbol>  (157) 
deamino_Gly_cPent

>  <m_abbr>  (157) 
deamino_Gly_cPent

>  <m_type>  (157) 
cap

>  <m_subtype>  (157) 
cap

>  <m_Rgroups>  (157) 
None,OH,None,None

>  <m_RgroupIdx>  (157) 
None,8,None,None

>  <m_attachmentPointIdx>  (157) 
None,0,None,None

>  <natAnalog>  (157) 
G

>  <pdbName>  (157) 
DWL

$$$$

     RDKit          2D

  6  5  0  0  0  0  0  0  0  0999 V2000
    2.4750   -1.4289    0.0000 O   0  0  0  0  0  0  0  0  0  0  0  0
    2.0625   -0.7145    0.0000 C   0  0  0  0  0  0  0  0  0  0  0  0
    2.4750    0.0000    0.0000 O   0  0  0  0  0  0  0  0  0  0  0  0
    1.2375   -0.7145    0.0000 C   0  0  0  0  0  0  0  0  0  0  0  0
    0.8250    0.0000    0.0000 O   0  0  0  0  0  0  0  0  0  0  0  0
    0.0000    0.0000    0.0000 R#  0  0  0  0  0  0  0  0  0  0  0  0
  1  2  1  0
  2  3  2  0
  2  4  1  0
  4  5  1  0
  5  6  1  0
M  RGP  1   6   1
V    6 *
M  END
>  <m_name>  (158) 
2-hydroxyacetic acid

>  <symbol>  (158) 
deamino_Gly_OH

>  <m_abbr>  (158) 
deamino_Gly_OH

>  <m_type>  (158) 
cap

>  <m_subtype>  (158) 
cap

>  <m_Rgroups>  (158) 
H,None,None,None

>  <m_RgroupIdx>  (158) 
5,None,None,None

>  <m_attachmentPointIdx>  (158) 
4,None,None,None

>  <natAnalog>  (158) 
G

>  <pdbName>  (158) 
DWO

$$$$

     RDKit          2D

  9  9  0  0  0  0  0  0  0  0999 V2000
   -0.1467    2.3518    0.0000 C   0  0  0  0  0  0  0  0  0  0  0  0
   -0.8612    1.9393    0.0000 O   0  0  0  0  0  0  0  0  0  0  0  0
    0.5678    1.9393    0.0000 C   0  0  0  0  0  0  0  0  0  0  0  0
    0.5678    1.1143    0.0000 C   0  0  0  0  0  0  0  0  0  0  0  0
    1.2352    0.6294    0.0000 C   0  0  0  0  0  0  0  0  0  0  0  0
    0.9803   -0.1553    0.0000 C   0  0  0  0  0  0  0  0  0  0  0  0
    0.1553   -0.1553    0.0000 C   0  0  0  0  0  0  0  0  0  0  0  0
   -0.0997    0.6294    0.0000 S   0  0  0  0  0  0  0  0  0  0  0  0
   -0.1467    3.1768    0.0000 R#  0  0  0  0  0  0  0  0  0  0  0  0
  9  1  1  0
  1  2  2  0
  1  3  1  0
  3  4  1  0
  4  5  2  0
  5  6  1  0
  6  7  2  0
  7  8  1  0
  4  8  1  0
M  RGP  1   9   2
V    9 *
M  END
>  <m_name>  (159) 
2-(thiophen-2-yl)acetic acid

>  <symbol>  (159) 
deamino_Gly_thien2yl

>  <m_abbr>  (159) 
deamino_Gly_thien2yl

>  <m_type>  (159) 
cap

>  <m_subtype>  (159) 
cap

>  <m_Rgroups>  (159) 
None,OH,None,None

>  <m_RgroupIdx>  (159) 
None,8,None,None

>  <m_attachmentPointIdx>  (159) 
None,0,None,None

>  <natAnalog>  (159) 
G

>  <pdbName>  (159) 
DWR

$$$$

     RDKit          2D

 18 19  0  0  0  0  0  0  0  0999 V2000
    2.2428   -2.5916    0.0000 N   0  0  0  0  0  0  0  0  0  0  0  0
    1.4358   -2.7631    0.0000 C   0  0  0  0  0  0  0  0  0  0  0  0
    0.8838   -2.1500    0.0000 C   0  0  0  0  0  0  0  0  0  0  0  0
    1.1387   -1.3654    0.0000 C   0  0  0  0  0  0  0  0  0  0  0  0
    0.6538   -0.6979    0.0000 C   0  0  0  0  0  0  0  0  0  0  0  0
    1.1387   -0.0305    0.0000 N   0  0  0  0  0  0  0  0  0  0  0  0
    0.8838    0.7541    0.0000 C   0  0  0  0  0  0  0  0  0  0  0  0
    0.0768    0.9256    0.0000 O   0  0  0  0  0  0  0  0  0  0  0  0
    1.9233   -0.2854    0.0000 C   0  0  0  0  0  0  0  0  0  0  0  0
    2.6378    0.1271    0.0000 C   0  0  0  0  0  0  0  0  0  0  0  0
    3.3523   -0.2854    0.0000 C   0  0  0  0  0  0  0  0  0  0  0  0
    3.3523   -1.1104    0.0000 C   0  0  0  0  0  0  0  0  0  0  0  0
    2.6378   -1.5229    0.0000 C   0  0  0  0  0  0  0  0  0  0  0  0
    1.9233   -1.1104    0.0000 C   0  0  0  0  0  0  0  0  0  0  0  0
    1.1809   -3.5477    0.0000 C   0  0  0  0  0  0  0  0  0  0  0  0
    1.7329   -4.1608    0.0000 O   0  0  0  0  0  0  0  0  0  0  0  0
    2.7948   -3.2047    0.0000 R#  0  0  0  0  0  0  0  0  0  0  0  0
    0.3739   -3.7192    0.0000 R#  0  0  0  0  0  0  0  0  0  0  0  0
 17  1  1  0
  2  1  1  0
  2  3  1  1
  3  4  1  0
  4  5  2  0
  5  6  1  0
  6  7  1  0
  7  8  2  0
  6  9  1  0
  9 10  2  0
 10 11  1  0
 11 12  2  0
 12 13  1  0
 13 14  2  0
  4 14  1  0
  9 14  1  0
  2 15  1  0
 15 18  1  0
 15 16  2  0
M  RGP  2  17   1  18   2
V   17 *
V   18 *
M  END
>  <m_name>  (160) 
(2R)-2-amino-3-(1-formyl-1H-indol-3-yl)propanoic acid

>  <symbol>  (160) 
D_Trp_For

>  <m_abbr>  (160) 
D_Trp_For

>  <m_type>  (160) 
aa

>  <m_subtype>  (160) 
non-natural

>  <m_Rgroups>  (160) 
H,OH,None,None

>  <m_RgroupIdx>  (160) 
16,17,None,None

>  <m_attachmentPointIdx>  (160) 
0,14,None,None

>  <natAnalog>  (160) 
W

>  <pdbName>  (160) 
DWU

$$$$

     RDKit          2D

  5  4  0  0  0  0  0  0  0  0999 V2000
    0.8250    1.4289    0.0000 S   0  0  0  0  0  0  0  0  0  0  0  0
    1.2375    0.7145    0.0000 C   0  0  0  0  0  0  0  0  0  0  0  0
    0.8250    0.0000    0.0000 C   0  0  0  0  0  0  0  0  0  0  0  0
    0.0000    0.0000    0.0000 O   0  0  0  0  0  0  0  0  0  0  0  0
    1.2375   -0.7145    0.0000 R#  0  0  0  0  0  0  0  0  0  0  0  0
  1  2  1  0
  2  3  1  0
  3  5  1  0
  3  4  2  0
M  RGP  1   5   2
V    5 *
M  END
>  <m_name>  (161) 
2-sulfanylacetic acid

>  <symbol>  (161) 
deamino_Ncy

>  <m_abbr>  (161) 
deamino_Ncy

>  <m_type>  (161) 
cap

>  <m_subtype>  (161) 
cap

>  <m_Rgroups>  (161) 
None,OH,None,None

>  <m_RgroupIdx>  (161) 
None,4,None,None

>  <m_attachmentPointIdx>  (161) 
None,2,None,None

>  <natAnalog>  (161) 
X

>  <pdbName>  (161) 
DW6

$$$$

     RDKit          2D

 12 12  0  0  0  0  0  0  0  0999 V2000
   -0.7145    3.7125    0.0000 O   0  0  0  0  0  0  0  0  0  0  0  0
    0.0000    3.3000    0.0000 C   0  0  0  0  0  0  0  0  0  0  0  0
    0.7145    3.7125    0.0000 O   0  0  0  0  0  0  0  0  0  0  0  0
    0.0000    2.4750    0.0000 C   0  0  0  0  0  0  0  0  0  0  0  0
    0.7145    2.0625    0.0000 C   0  0  0  0  0  0  0  0  0  0  0  0
    0.7145    1.2375    0.0000 C   0  0  0  0  0  0  0  0  0  0  0  0
    1.4289    0.8250    0.0000 C   0  0  0  0  0  0  0  0  0  0  0  0
    1.4289    0.0000    0.0000 C   0  0  0  0  0  0  0  0  0  0  0  0
    0.7145   -0.4125    0.0000 C   0  0  0  0  0  0  0  0  0  0  0  0
    0.0000    0.0000    0.0000 C   0  0  0  0  0  0  0  0  0  0  0  0
    0.0000    0.8250    0.0000 C   0  0  0  0  0  0  0  0  0  0  0  0
   -0.7145    2.0625    0.0000 R#  0  0  0  0  0  0  0  0  0  0  0  0
  1  2  1  0
  2  3  2  0
  2  4  1  0
  4 12  1  0
  4  5  1  0
  5  6  1  0
  6  7  2  0
  7  8  1  0
  8  9  2  0
  9 10  1  0
 10 11  2  0
  6 11  1  0
M  RGP  1  12   2
V   12 *
M  END
>  <m_name>  (162) 
Deamino-Phenylalanine

>  <symbol>  (162) 
deamino_Phe

>  <m_abbr>  (162) 
deamino_Phe

>  <m_type>  (162) 
cap

>  <m_subtype>  (162) 
cap

>  <m_Rgroups>  (162) 
None,OH,None,None

>  <m_RgroupIdx>  (162) 
None,11,None,None

>  <m_attachmentPointIdx>  (162) 
None,3,None,None

>  <natAnalog>  (162) 
F

>  <pdbName>  (162) 
DXI

$$$$

     RDKit          2D

 12 12  0  0  0  0  0  0  0  0999 V2000
    0.7145    2.0625    0.0000 C   0  0  0  0  0  0  0  0  0  0  0  0
    0.7145    1.2375    0.0000 C   0  0  0  0  0  0  0  0  0  0  0  0
    1.4289    0.8250    0.0000 C   0  0  0  0  0  0  0  0  0  0  0  0
    1.4289    0.0000    0.0000 C   0  0  0  0  0  0  0  0  0  0  0  0
    2.1434   -0.4125    0.0000 C   0  0  0  0  0  0  0  0  0  0  0  0
    0.7145   -0.4125    0.0000 C   0  0  0  0  0  0  0  0  0  0  0  0
    0.0000    0.0000    0.0000 C   0  0  0  0  0  0  0  0  0  0  0  0
   -0.7145   -0.4125    0.0000 C   0  0  0  0  0  0  0  0  0  0  0  0
   -1.4289    0.0000    0.0000 C   0  0  0  0  0  0  0  0  0  0  0  0
   -1.4289    0.8250    0.0000 O   0  0  0  0  0  0  0  0  0  0  0  0
    0.0000    0.8250    0.0000 C   0  0  0  0  0  0  0  0  0  0  0  0
   -2.1434   -0.4125    0.0000 R#  0  0  0  0  0  0  0  0  0  0  0  0
  1  2  1  0
  2  3  2  0
  3  4  1  0
  4  5  1  0
  4  6  2  0
  6  7  1  0
  7  8  1  0
  8  9  1  0
  9 12  1  0
  9 10  2  0
  7 11  2  0
  2 11  1  0
M  RGP  1  12   2
V   12 *
M  END
>  <m_name>  (163) 
2-(3,5-dimethylphenyl)acetic acid

>  <symbol>  (163) 
deamino_Phg_35diMe

>  <m_abbr>  (163) 
deamino_Phg_35diMe

>  <m_type>  (163) 
cap

>  <m_subtype>  (163) 
cap

>  <m_Rgroups>  (163) 
None,OH,None,None

>  <m_RgroupIdx>  (163) 
None,11,None,None

>  <m_attachmentPointIdx>  (163) 
None,8,None,None

>  <natAnalog>  (163) 
F

>  <pdbName>  (163) 
DYI

$$$$

     RDKit          2D

  8  7  0  0  0  0  0  0  0  0999 V2000
   -0.1914    0.7145    0.0000 C   0  0  0  0  0  0  0  0  0  0  0  0
    0.5230    1.1270    0.0000 C   0  0  0  0  0  0  0  0  0  0  0  0
    0.5230    1.9520    0.0000 C   0  0  0  0  0  0  0  0  0  0  0  0
    1.2375    0.7145    0.0000 C   0  0  0  0  0  0  0  0  0  0  0  0
    1.9520    1.1270    0.0000 C   0  0  0  0  0  0  0  0  0  0  0  0
    2.6664    0.7145    0.0000 C   0  0  0  0  0  0  0  0  0  0  0  0
    2.6664   -0.1105    0.0000 O   0  0  0  0  0  0  0  0  0  0  0  0
    3.3809    1.1270    0.0000 R#  0  0  0  0  0  0  0  0  0  0  0  0
  1  2  1  0
  2  3  1  0
  2  4  1  0
  4  5  1  0
  5  6  1  0
  6  8  1  0
  6  7  2  0
M  RGP  1   8   2
V    8 *
M  END
>  <m_name>  (164) 
Deamino-Leucine

>  <symbol>  (164) 
deamino_Leu

>  <m_abbr>  (164) 
deamino_Leu

>  <m_type>  (164) 
cap

>  <m_subtype>  (164) 
cap

>  <m_Rgroups>  (164) 
None,OH,None,None

>  <m_RgroupIdx>  (164) 
None,7,None,None

>  <m_attachmentPointIdx>  (164) 
None,5,None,None

>  <natAnalog>  (164) 
L

>  <pdbName>  (164) 
DYO

$$$$

     RDKit          2D

  6  5  0  0  0  0  0  0  0  0999 V2000
    0.8250    1.4289    0.0000 C   0  0  0  0  0  0  0  0  0  0  0  0
    1.2375    0.7145    0.0000 C   0  0  0  0  0  0  0  0  0  0  0  0
    2.0625    0.7145    0.0000 O   0  0  0  0  0  0  0  0  0  0  0  0
    0.8250    0.0000    0.0000 C   0  0  0  0  0  0  0  0  0  0  0  0
    0.0000    0.0000    0.0000 O   0  0  0  0  0  0  0  0  0  0  0  0
    1.2375   -0.7145    0.0000 R#  0  0  0  0  0  0  0  0  0  0  0  0
  2  1  1  1
  2  3  1  0
  2  4  1  0
  4  6  1  0
  4  5  2  0
M  RGP  1   6   2
V    6 *
M  END
>  <m_name>  (165) 
(2R)-2-hydroxypropanoic acid

>  <symbol>  (165) 
D_OAla

>  <m_abbr>  (165) 
D_OAla

>  <m_type>  (165) 
cap

>  <m_subtype>  (165) 
cap

>  <m_Rgroups>  (165) 
None,OH,None,None

>  <m_RgroupIdx>  (165) 
None,5,None,None

>  <m_attachmentPointIdx>  (165) 
None,3,None,None

>  <natAnalog>  (165) 
A

>  <pdbName>  (165) 
DYQ

$$$$

     RDKit          2D

  6  5  0  0  0  0  0  0  0  0999 V2000
    0.8250    1.4289    0.0000 C   0  0  0  0  0  0  0  0  0  0  0  0
    1.2375    0.7145    0.0000 C   0  0  0  0  0  0  0  0  0  0  0  0
    2.0625    0.7145    0.0000 O   0  0  0  0  0  0  0  0  0  0  0  0
    0.8250    0.0000    0.0000 C   0  0  0  0  0  0  0  0  0  0  0  0
    0.0000    0.0000    0.0000 O   0  0  0  0  0  0  0  0  0  0  0  0
    1.2375   -0.7145    0.0000 R#  0  0  0  0  0  0  0  0  0  0  0  0
  2  1  1  6
  2  3  1  0
  2  4  1  0
  4  6  1  0
  4  5  2  0
M  RGP  1   6   2
V    6 *
M  END
>  <m_name>  (166) 
(2S)-2-hydroxypropanoic acid

>  <symbol>  (166) 
L_OAla

>  <m_abbr>  (166) 
L_OAla

>  <m_type>  (166) 
cap

>  <m_subtype>  (166) 
cap

>  <m_Rgroups>  (166) 
None,OH,None,None

>  <m_RgroupIdx>  (166) 
None,5,None,None

>  <m_attachmentPointIdx>  (166) 
None,3,None,None

>  <natAnalog>  (166) 
A

>  <pdbName>  (166) 
LOO

$$$$

     RDKit          2D

  8  7  0  0  0  0  0  0  0  0999 V2000
    1.2375    2.1434    0.0000 C   0  0  0  0  0  0  0  0  0  0  0  0
    0.8250    1.4289    0.0000 C   0  0  0  0  0  0  0  0  0  0  0  0
    0.0000    1.4289    0.0000 C   0  0  0  0  0  0  0  0  0  0  0  0
    1.2375    0.7145    0.0000 C   0  0  0  0  0  0  0  0  0  0  0  0
    2.0625    0.7145    0.0000 O   0  0  0  0  0  0  0  0  0  0  0  0
    0.8250    0.0000    0.0000 C   0  0  0  0  0  0  0  0  0  0  0  0
    0.0000    0.0000    0.0000 O   0  0  0  0  0  0  0  0  0  0  0  0
    1.2375   -0.7145    0.0000 R#  0  0  0  0  0  0  0  0  0  0  0  0
  1  2  1  0
  2  3  1  0
  4  2  1  0
  4  5  1  6
  4  6  1  0
  6  8  1  0
  6  7  2  0
M  RGP  1   8   2
V    8 *
M  END
>  <m_name>  (167) 
(2S)-2-hydroxy-3-methylbutanoic acid

>  <symbol>  (167) 
L_OVal

>  <m_abbr>  (167) 
L_OVal

>  <m_type>  (167) 
cap

>  <m_subtype>  (167) 
cap

>  <m_Rgroups>  (167) 
None,OH,None,None

>  <m_RgroupIdx>  (167) 
None,7,None,None

>  <m_attachmentPointIdx>  (167) 
None,5,None,None

>  <natAnalog>  (167) 
V

>  <pdbName>  (167) 
LO0

$$$$

     RDKit          2D

  9  9  0  0  0  0  0  0  0  0999 V2000
    0.0000    2.4750    0.0000 N   0  0  0  0  0  0  0  0  0  0  0  0
    0.7145    2.0625    0.0000 C   0  0  0  0  0  0  0  0  0  0  0  0
    0.7145    1.2375    0.0000 C   0  0  0  0  0  0  0  0  0  0  0  0
    1.4289    0.8250    0.0000 C   0  0  0  0  0  0  0  0  0  0  0  0
    1.4289    0.0000    0.0000 C   0  0  0  0  0  0  0  0  0  0  0  0
    0.7145   -0.4125    0.0000 C   0  0  0  0  0  0  0  0  0  0  0  0
    0.0000    0.0000    0.0000 C   0  0  0  0  0  0  0  0  0  0  0  0
    0.0000    0.8250    0.0000 C   0  0  0  0  0  0  0  0  0  0  0  0
    0.0000    3.3000    0.0000 R#  0  0  0  0  0  0  0  0  0  0  0  0
  9  1  1  0
  1  2  1  0
  2  3  1  0
  3  4  2  0
  4  5  1  0
  5  6  2  0
  6  7  1  0
  7  8  2  0
  3  8  1  0
M  RGP  1   9   2
V    9 *
M  END
>  <m_name>  (168) 
N-Terminal 1-phenylmethanamine

>  <symbol>  (168) 
NHBn_

>  <m_abbr>  (168) 
NHBn_

>  <m_type>  (168) 
cap

>  <m_subtype>  (168) 
cap

>  <m_Rgroups>  (168) 
None,OH,None,None

>  <m_RgroupIdx>  (168) 
None,8,None,None

>  <m_attachmentPointIdx>  (168) 
None,0,None,None

>  <natAnalog>  (168) 
X

>  <pdbName>  (168) 
NHZ

$$$$

     RDKit          2D

  9  9  0  0  0  0  0  0  0  0999 V2000
    0.7145    2.0625    0.0000 C   0  0  0  0  0  0  0  0  0  0  0  0
    1.4289    2.4750    0.0000 O   0  0  0  0  0  0  0  0  0  0  0  0
    0.7145    1.2375    0.0000 C   0  0  0  0  0  0  0  0  0  0  0  0
    1.4289    0.8250    0.0000 C   0  0  0  0  0  0  0  0  0  0  0  0
    1.4289    0.0000    0.0000 C   0  0  0  0  0  0  0  0  0  0  0  0
    0.7145   -0.4125    0.0000 C   0  0  0  0  0  0  0  0  0  0  0  0
    0.0000    0.0000    0.0000 C   0  0  0  0  0  0  0  0  0  0  0  0
    0.0000    0.8250    0.0000 C   0  0  0  0  0  0  0  0  0  0  0  0
    0.0000    2.4750    0.0000 R#  0  0  0  0  0  0  0  0  0  0  0  0
  9  1  1  0
  1  2  2  0
  1  3  1  0
  3  4  2  0
  4  5  1  0
  5  6  2  0
  6  7  1  0
  7  8  2  0
  3  8  1  0
M  RGP  1   9   2
V    9 *
M  END
>  <m_name>  (169) 
Benzaldehyde

>  <symbol>  (169) 
Bz

>  <m_abbr>  (169) 
Bz

>  <m_type>  (169) 
cap

>  <m_subtype>  (169) 
cap

>  <m_Rgroups>  (169) 
None,OH,None,None

>  <m_RgroupIdx>  (169) 
None,8,None,None

>  <m_attachmentPointIdx>  (169) 
None,0,None,None

>  <natAnalog>  (169) 
X

>  <pdbName>  (169) 
BZL

$$$$

     RDKit          2D

  3  2  0  0  0  0  0  0  0  0999 V2000
    1.2375   -0.7145    0.0000 C   0  0  0  0  0  0  0  0  0  0  0  0
    1.9520   -1.1270    0.0000 C   0  0  0  0  0  0  0  0  0  0  0  0
    2.6664   -0.7145    0.0000 R#  0  0  0  0  0  0  0  0  0  0  0  0
  1  2  1  0
  2  3  1  0
M  RGP  1   3   2
V    3 *
M  END
>  <m_name>  (170) 
N-Terminal ethyl

>  <symbol>  (170) 
Et_

>  <m_abbr>  (170) 
Et_

>  <m_type>  (170) 
cap

>  <m_subtype>  (170) 
cap

>  <m_Rgroups>  (170) 
None,OH,None,None

>  <m_RgroupIdx>  (170) 
None,2,None,None

>  <m_attachmentPointIdx>  (170) 
None,1,None,None

>  <natAnalog>  (170) 
X

>  <pdbName>  (170) 
ETL

$$$$

     RDKit          2D

  2  1  0  0  0  0  0  0  0  0999 V2000
    0.8250    0.0000    0.0000 C   0  0  0  0  0  0  0  0  0  0  0  0
    0.0000    0.0000    0.0000 R#  0  0  0  0  0  0  0  0  0  0  0  0
  1  2  1  0
M  RGP  1   2   2
V    2 *
M  END
>  <m_name>  (171) 
N-Terminal methyl

>  <symbol>  (171) 
Me_

>  <m_abbr>  (171) 
Me_

>  <m_type>  (171) 
cap

>  <m_subtype>  (171) 
cap

>  <m_Rgroups>  (171) 
None,OH,None,None

>  <m_RgroupIdx>  (171) 
None,1,None,None

>  <m_attachmentPointIdx>  (171) 
None,0,None,None

>  <natAnalog>  (171) 
X

>  <pdbName>  (171) 
MG6

$$$$

     RDKit          2D

 16 16  0  0  0  0  0  0  0  0999 V2000
    0.0000    3.3000    0.0000 C   0  0  0  0  0  0  0  0  0  0  0  0
    0.0000    2.4750    0.0000 C   0  0  0  0  0  0  0  0  0  0  0  0
    0.7145    2.0625    0.0000 O   0  0  0  0  0  0  0  0  0  0  0  0
    0.7145    1.2375    0.0000 C   0  0  0  0  0  0  0  0  0  0  0  0
    1.4289    0.8250    0.0000 C   0  0  0  0  0  0  0  0  0  0  0  0
    1.4289    0.0000    0.0000 C   0  0  0  0  0  0  0  0  0  0  0  0
    0.7145   -0.4125    0.0000 C   0  0  0  0  0  0  0  0  0  0  0  0
    0.7145   -1.2375    0.0000 C   0  0  0  0  0  0  0  0  0  0  0  0
    1.4289   -1.6500    0.0000 C   0  0  0  0  0  0  0  0  0  0  0  0
    1.4289   -2.4750    0.0000 N   0  0  0  0  0  0  0  0  0  0  0  0
    2.1434   -1.2375    0.0000 C   0  0  0  0  0  0  0  0  0  0  0  0
    2.1434   -0.4125    0.0000 O   0  0  0  0  0  0  0  0  0  0  0  0
    0.0000    0.0000    0.0000 C   0  0  0  0  0  0  0  0  0  0  0  0
    0.0000    0.8250    0.0000 C   0  0  0  0  0  0  0  0  0  0  0  0
    2.1434   -2.8875    0.0000 R#  0  0  0  0  0  0  0  0  0  0  0  0
    2.8579   -1.6500    0.0000 R#  0  0  0  0  0  0  0  0  0  0  0  0
  1  2  1  0
  2  3  1  0
  3  4  1  0
  4  5  2  0
  5  6  1  0
  6  7  2  0
  7  8  1  0
  9  8  1  6
  9 10  1  0
 10 15  1  0
  9 11  1  0
 11 16  1  0
 11 12  2  0
  7 13  1  0
 13 14  2  0
  4 14  1  0
M  RGP  2  15   1  16   2
V   15 *
V   16 *
M  END
>  <m_name>  (172) 
(2R)-2-amino-3-(4-ethoxyphenyl)propanoic acid

>  <symbol>  (172) 
D_Tyr_Et

>  <m_abbr>  (172) 
D_Tyr_Et

>  <m_type>  (172) 
aa

>  <m_subtype>  (172) 
non-natural

>  <m_Rgroups>  (172) 
H,OH,None,None

>  <m_RgroupIdx>  (172) 
14,15,None,None

>  <m_attachmentPointIdx>  (172) 
9,10,None,None

>  <natAnalog>  (172) 
Y

>  <pdbName>  (172) 
DY0

$$$$

     RDKit          2D

 14 13  0  0  0  0  0  0  0  0999 V2000
   -0.1127   -3.1046    0.0000 C   0  0  0  0  0  0  0  0  0  0  0  0
    0.6974   -2.9487    0.0000 C   0  0  0  0  0  0  0  0  0  0  0  0
    0.9675   -2.1692    0.0000 O   0  0  0  0  0  0  0  0  0  0  0  0
    1.2375   -3.5724    0.0000 N   0  0  0  0  0  0  0  0  0  0  0  0
    2.0476   -3.4164    0.0000 C   0  0  0  0  0  0  0  0  0  0  0  0
    2.5877   -4.0401    0.0000 C   0  0  0  0  0  0  0  0  0  0  0  0
    3.3979   -3.8842    0.0000 C   0  0  0  0  0  0  0  0  0  0  0  0
    3.9379   -4.5078    0.0000 C   0  0  0  0  0  0  0  0  0  0  0  0
    4.7481   -4.3519    0.0000 C   0  0  0  0  0  0  0  0  0  0  0  0
    5.2882   -4.9755    0.0000 N   0  0  0  0  0  0  0  0  0  0  0  0
    5.0181   -3.5724    0.0000 C   0  0  0  0  0  0  0  0  0  0  0  0
    5.8283   -3.4164    0.0000 O   0  0  0  0  0  0  0  0  0  0  0  0
    6.0983   -4.8196    0.0000 R#  0  0  0  0  0  0  0  0  0  0  0  0
    4.4780   -2.9487    0.0000 R#  0  0  0  0  0  0  0  0  0  0  0  0
  1  2  1  0
  2  3  2  0
  2  4  1  0
  4  5  1  0
  5  6  1  0
  6  7  1  0
  7  8  1  0
  9  8  1  1
  9 10  1  0
 10 13  1  0
  9 11  1  0
 11 14  1  0
 11 12  2  0
M  RGP  2  13   1  14   2
V   13 *
V   14 *
M  END
>  <m_name>  (173) 
(2S)-2-amino-6-acetamidohexanoic acid

>  <symbol>  (173) 
Lys_Ac

>  <m_abbr>  (173) 
Lys_Ac

>  <m_type>  (173) 
aa

>  <m_subtype>  (173) 
non-natural

>  <m_Rgroups>  (173) 
H,OH,None,None

>  <m_RgroupIdx>  (173) 
12,13,None,None

>  <m_attachmentPointIdx>  (173) 
9,10,None,None

>  <natAnalog>  (173) 
K

>  <pdbName>  (173) 
LY6

$$$$

     RDKit          2D

  3  2  0  0  0  0  0  0  0  0999 V2000
    1.2375   -0.7145    0.0000 C   0  0  0  0  0  0  0  0  0  0  0  0
    1.9520   -1.1270    0.0000 O   0  0  0  0  0  0  0  0  0  0  0  0
    2.6664   -0.7145    0.0000 R#  0  0  0  0  0  0  0  0  0  0  0  0
  1  2  1  0
  2  3  1  0
M  RGP  1   3   2
V    3 *
M  END
>  <m_name>  (174) 
N-Terminal methanol

>  <symbol>  (174) 
OMe_

>  <m_abbr>  (174) 
OMe_

>  <m_type>  (174) 
cap

>  <m_subtype>  (174) 
cap

>  <m_Rgroups>  (174) 
None,OH,None,None

>  <m_RgroupIdx>  (174) 
None,2,None,None

>  <m_attachmentPointIdx>  (174) 
None,1,None,None

>  <natAnalog>  (174) 
X

>  <pdbName>  (174) 
OMQ

$$$$

     RDKit          2D

 11 10  0  0  0  0  0  0  0  0999 V2000
    0.8250   -1.4289    0.0000 C   0  0  0  0  0  0  0  0  0  0  0  0
    1.2375   -2.1434    0.0000 O   0  0  0  0  0  0  0  0  0  0  0  0
    2.0625   -2.1434    0.0000 C   0  0  0  0  0  0  0  0  0  0  0  0
    2.4750   -1.4289    0.0000 O   0  0  0  0  0  0  0  0  0  0  0  0
    2.4750   -2.8579    0.0000 C   0  0  0  0  0  0  0  0  0  0  0  0
    3.3000   -2.8579    0.0000 C   0  0  0  0  0  0  0  0  0  0  0  0
    3.7125   -3.5724    0.0000 N   0  0  0  0  0  0  0  0  0  0  0  0
    3.7125   -2.1434    0.0000 C   0  0  0  0  0  0  0  0  0  0  0  0
    4.5375   -2.1434    0.0000 O   0  0  0  0  0  0  0  0  0  0  0  0
    4.5375   -3.5724    0.0000 R#  0  0  0  0  0  0  0  0  0  0  0  0
    3.3000   -1.4289    0.0000 R#  0  0  0  0  0  0  0  0  0  0  0  0
  1  2  1  0
  2  3  1  0
  3  4  2  0
  3  5  1  0
  6  5  1  1
  6  7  1  0
  7 10  1  0
  6  8  1  0
  8 11  1  0
  8  9  2  0
M  RGP  2  10   1  11   2
V   10 *
V   11 *
M  END
>  <m_name>  (175) 
(2S)-2-amino-4-methoxy-4-oxobutanoic acid

>  <symbol>  (175) 
Asp_OMe

>  <m_abbr>  (175) 
Asp_OMe

>  <m_type>  (175) 
aa

>  <m_subtype>  (175) 
non-natural

>  <m_Rgroups>  (175) 
H,OH,None,None

>  <m_RgroupIdx>  (175) 
9,10,None,None

>  <m_attachmentPointIdx>  (175) 
6,7,None,None

>  <natAnalog>  (175) 
D

>  <pdbName>  (175) 
AGZ

$$$$

     RDKit          2D

 12 12  0  0  0  0  0  0  0  0999 V2000
    1.4289    2.4750    0.0000 C   0  0  0  0  0  0  0  0  0  0  0  0
    0.7145    2.0625    0.0000 N   0  0  0  0  0  0  0  0  0  0  0  0
    0.0000    2.4750    0.0000 C   0  0  0  0  0  0  0  0  0  0  0  0
    0.7145    1.2375    0.0000 C   0  0  0  0  0  0  0  0  0  0  0  0
    1.4289    0.8250    0.0000 C   0  0  0  0  0  0  0  0  0  0  0  0
    1.4289    0.0000    0.0000 C   0  0  0  0  0  0  0  0  0  0  0  0
    0.7145   -0.4125    0.0000 C   0  0  0  0  0  0  0  0  0  0  0  0
    0.0000    0.0000    0.0000 C   0  0  0  0  0  0  0  0  0  0  0  0
    0.0000    0.8250    0.0000 C   0  0  0  0  0  0  0  0  0  0  0  0
   -0.7145   -0.4125    0.0000 C   0  0  0  0  0  0  0  0  0  0  0  0
   -1.4289    0.0000    0.0000 O   0  0  0  0  0  0  0  0  0  0  0  0
   -0.7145   -1.2375    0.0000 R#  0  0  0  0  0  0  0  0  0  0  0  0
  1  2  1  0
  2  3  1  0
  2  4  1  0
  4  5  2  0
  5  6  1  0
  6  7  2  0
  7  8  1  0
  8  9  2  0
  4  9  1  0
  8 10  1  0
 10 12  1  0
 10 11  2  0
M  RGP  1  12   2
V   12 *
M  END
>  <m_name>  (176) 
3-(dimethylamino)benzoic acid

>  <symbol>  (176) 
NMe23Abz

>  <m_abbr>  (176) 
NMe23Abz

>  <m_type>  (176) 
aa

>  <m_subtype>  (176) 
non-natural

>  <m_Rgroups>  (176) 
None,OH,None,None

>  <m_RgroupIdx>  (176) 
None,11,None,None

>  <m_attachmentPointIdx>  (176) 
None,9,None,None

>  <natAnalog>  (176) 
X

>  <pdbName>  (176) 
NMV

$$$$

     RDKit          2D

 13 13  0  0  0  0  0  0  0  0999 V2000
    0.0000    3.3000    0.0000 N   0  0  0  0  0  0  0  0  0  0  0  0
    0.0000    2.4750    0.0000 C   0  0  0  0  0  0  0  0  0  0  0  0
    0.7145    2.0625    0.0000 C   0  0  0  0  0  0  0  0  0  0  0  0
    0.7145    1.2375    0.0000 C   0  0  0  0  0  0  0  0  0  0  0  0
    1.4289    0.8250    0.0000 C   0  0  0  0  0  0  0  0  0  0  0  0
    1.4289    0.0000    0.0000 C   0  0  0  0  0  0  0  0  0  0  0  0
    0.7145   -0.4125    0.0000 C   0  0  0  0  0  0  0  0  0  0  0  0
    0.0000    0.0000    0.0000 C   0  0  0  0  0  0  0  0  0  0  0  0
    0.0000    0.8250    0.0000 C   0  0  0  0  0  0  0  0  0  0  0  0
   -0.7145    2.0625    0.0000 C   0  0  0  0  0  0  0  0  0  0  0  0
   -1.4289    2.4750    0.0000 O   0  0  0  0  0  0  0  0  0  0  0  0
   -0.7145    3.7125    0.0000 R#  0  0  0  0  0  0  0  0  0  0  0  0
   -0.7145    1.2375    0.0000 R#  0  0  0  0  0  0  0  0  0  0  0  0
  1 12  1  0
  1  2  2  3
  2  3  1  0
  3  4  1  0
  4  5  2  0
  5  6  1  0
  6  7  2  0
  7  8  1  0
  8  9  2  0
  4  9  1  0
  2 10  1  0
 10 13  1  0
 10 11  2  0
M  RGP  2  12   1  13   2
V   12 *
V   13 *
M  END
>  <m_name>  (177) 
2-amino-3-phenylprop-2-enoic acid

>  <symbol>  (177) 
Phe_ab_dehydro

>  <m_abbr>  (177) 
Phe_ab_dehydro

>  <m_type>  (177) 
aa

>  <m_subtype>  (177) 
non-natural

>  <m_Rgroups>  (177) 
H,OH,None,None

>  <m_RgroupIdx>  (177) 
11,12,None,None

>  <m_attachmentPointIdx>  (177) 
0,9,None,None

>  <natAnalog>  (177) 
F

>  <pdbName>  (177) 
PJF

$$$$

     RDKit          2D

 13 12  0  0  0  0  0  0  0  0999 V2000
    1.0461    1.4289    0.0000 C   0  0  0  0  0  0  0  0  0  0  0  0
    1.7605    1.8414    0.0000 C   0  0  0  0  0  0  0  0  0  0  0  0
    1.7605    2.6664    0.0000 C   0  0  0  0  0  0  0  0  0  0  0  0
    2.4750    1.4289    0.0000 C   0  0  0  0  0  0  0  0  0  0  0  0
    3.1895    1.8414    0.0000 C   0  0  0  0  0  0  0  0  0  0  0  0
    3.1895    2.6664    0.0000 N   0  0  0  0  0  0  0  0  0  0  0  0
    3.9039    1.4289    0.0000 C   0  0  0  0  0  0  0  0  0  0  0  0
    3.9039    0.6039    0.0000 O   0  0  0  0  0  0  0  0  0  0  0  0
    4.6184    1.8414    0.0000 C   0  0  0  0  0  0  0  0  0  0  0  0
    5.3329    1.4289    0.0000 C   0  0  0  0  0  0  0  0  0  0  0  0
    5.3329    0.6039    0.0000 O   0  0  0  0  0  0  0  0  0  0  0  0
    3.9039    3.0789    0.0000 R#  0  0  0  0  0  0  0  0  0  0  0  0
    6.0474    1.8414    0.0000 R#  0  0  0  0  0  0  0  0  0  0  0  0
  1  2  1  0
  2  3  1  0
  2  4  1  0
  4  5  1  0
  5  6  1  0
  6 12  1  0
  5  7  1  0
  7  8  1  0
  7  9  1  0
  9 10  1  0
 10 13  1  0
 10 11  2  0
M  RGP  2  12   1  13   2
V   12 *
V   13 *
M  END
>  <m_name>  (178) 
4-amino-3-hydroxy-6-methylheptanoic acid

>  <symbol>  (178) 
Sta_3xi4xi

>  <m_abbr>  (178) 
Sta_3xi4xi

>  <m_type>  (178) 
aa

>  <m_subtype>  (178) 
non-natural

>  <m_Rgroups>  (178) 
H,OH,None,None

>  <m_RgroupIdx>  (178) 
11,12,None,None

>  <m_attachmentPointIdx>  (178) 
5,9,None,None

>  <natAnalog>  (178) 
X

>  <pdbName>  (178) 
ST0

$$$$

     RDKit          2D

 15 15  0  0  0  0  0  0  0  0999 V2000
    0.0000    2.4750    0.0000 C   0  0  0  0  0  0  0  0  0  0  0  0
    0.7145    2.0625    0.0000 O   0  0  0  0  0  0  0  0  0  0  0  0
    0.7145    1.2375    0.0000 C   0  0  0  0  0  0  0  0  0  0  0  0
    1.4289    0.8250    0.0000 C   0  0  0  0  0  0  0  0  0  0  0  0
    1.4289    0.0000    0.0000 C   0  0  0  0  0  0  0  0  0  0  0  0
    0.7145   -0.4125    0.0000 C   0  0  0  0  0  0  0  0  0  0  0  0
    0.7145   -1.2375    0.0000 C   0  0  0  0  0  0  0  0  0  0  0  0
    0.0000   -1.6500    0.0000 C   0  0  0  0  0  0  0  0  0  0  0  0
    0.0000   -2.4750    0.0000 N   0  0  0  0  0  0  0  0  0  0  0  0
   -0.7145   -1.2375    0.0000 C   0  0  0  0  0  0  0  0  0  0  0  0
   -0.7145   -0.4125    0.0000 O   0  0  0  0  0  0  0  0  0  0  0  0
    0.0000    0.0000    0.0000 C   0  0  0  0  0  0  0  0  0  0  0  0
    0.0000    0.8250    0.0000 C   0  0  0  0  0  0  0  0  0  0  0  0
    0.7145   -2.8875    0.0000 R#  0  0  0  0  0  0  0  0  0  0  0  0
   -1.4289   -1.6500    0.0000 R#  0  0  0  0  0  0  0  0  0  0  0  0
  1  2  1  0
  2  3  1  0
  3  4  2  0
  4  5  1  0
  5  6  2  0
  7  6  1  0
  7  8  2  3
  8  9  1  0
  9 14  1  0
  8 10  1  0
 10 15  1  0
 10 11  2  0
  6 12  1  0
 12 13  2  0
  3 13  1  0
M  RGP  2  14   1  15   2
V   14 *
V   15 *
M  END
>  <m_name>  (179) 
2-amino-3-(4-methoxyphenyl)prop-2-enoic acid

>  <symbol>  (179) 
Tyr_ab_dehydroMe

>  <m_abbr>  (179) 
Tyr_ab_dehydroMe

>  <m_type>  (179) 
aa

>  <m_subtype>  (179) 
non-natural

>  <m_Rgroups>  (179) 
H,OH,None,None

>  <m_RgroupIdx>  (179) 
13,14,None,None

>  <m_attachmentPointIdx>  (179) 
8,9,None,None

>  <natAnalog>  (179) 
Y

>  <pdbName>  (179) 
TY6

$$$$

     RDKit          2D

 16 16  0  0  0  0  0  0  0  0999 V2000
    2.9684   -2.2836    0.0000 O   0  0  0  0  0  0  0  0  0  0  0  0
    3.3809   -2.9980    0.0000 C   0  0  0  0  0  0  0  0  0  0  0  0
    2.9684   -3.7125    0.0000 C   0  0  0  0  0  0  0  0  0  0  0  0
    2.1434   -3.7125    0.0000 C   0  0  0  0  0  0  0  0  0  0  0  0
    1.7309   -2.9980    0.0000 O   0  0  0  0  0  0  0  0  0  0  0  0
    4.2059   -2.9980    0.0000 C   0  0  0  0  0  0  0  0  0  0  0  0
    4.6184   -2.2836    0.0000 C   0  0  0  0  0  0  0  0  0  0  0  0
    5.4434   -2.2836    0.0000 C   0  0  0  0  0  0  0  0  0  0  0  0
    5.8559   -1.5691    0.0000 C   0  0  0  0  0  0  0  0  0  0  0  0
    6.6809   -1.5691    0.0000 C   0  0  0  0  0  0  0  0  0  0  0  0
    7.0934   -2.2836    0.0000 C   0  0  0  0  0  0  0  0  0  0  0  0
    6.6809   -2.9980    0.0000 C   0  0  0  0  0  0  0  0  0  0  0  0
    5.8559   -2.9980    0.0000 C   0  0  0  0  0  0  0  0  0  0  0  0
    4.6184   -3.7125    0.0000 N   0  0  0  0  0  0  0  0  0  0  0  0
    1.7309   -4.4270    0.0000 R#  0  0  0  0  0  0  0  0  0  0  0  0
    4.2059   -4.4270    0.0000 R#  0  0  0  0  0  0  0  0  0  0  0  0
  2  1  1  1
  2  3  1  0
  3  4  1  0
  4 15  1  0
  4  5  2  0
  2  6  1  0
  6  7  1  6
  7  8  1  0
  8  9  2  0
  9 10  1  0
 10 11  2  0
 11 12  1  0
 12 13  2  0
  8 13  1  0
  6 14  1  0
 14 16  1  0
M  RGP  2  15   2  16   1
V   15 *
V   16 *
M  END
>  <m_name>  (180) 
gamma-amino-beta-hydroxybenzenepentanoic acid

>  <symbol>  (180) 
App

>  <m_abbr>  (180) 
App

>  <m_type>  (180) 
aa

>  <m_subtype>  (180) 
non-natural

>  <m_Rgroups>  (180) 
H,OH,None,None

>  <m_RgroupIdx>  (180) 
15,14,None,None

>  <m_attachmentPointIdx>  (180) 
13,3,None,None

>  <natAnalog>  (180) 
X

>  <pdbName>  (180) 
AHV

$$$$

     RDKit          2D

 16 16  0  0  0  0  0  0  0  0999 V2000
    2.8579    0.0000    0.0000 O   0  0  0  0  0  0  0  0  0  0  0  0
    2.8579   -0.8250    0.0000 C   0  0  0  0  0  0  0  0  0  0  0  0
    2.1434   -1.2375    0.0000 C   0  0  0  0  0  0  0  0  0  0  0  0
    1.4289   -0.8250    0.0000 C   0  0  0  0  0  0  0  0  0  0  0  0
    0.7145   -1.2375    0.0000 C   0  0  0  0  0  0  0  0  0  0  0  0
    0.0000   -0.8250    0.0000 C   0  0  0  0  0  0  0  0  0  0  0  0
   -0.7145   -1.2375    0.0000 C   0  0  0  0  0  0  0  0  0  0  0  0
   -1.4289   -0.8250    0.0000 C   0  0  0  0  0  0  0  0  0  0  0  0
   -1.4289    0.0000    0.0000 C   0  0  0  0  0  0  0  0  0  0  0  0
   -0.7145    0.4125    0.0000 C   0  0  0  0  0  0  0  0  0  0  0  0
    0.0000    0.0000    0.0000 C   0  0  0  0  0  0  0  0  0  0  0  0
    2.1434   -2.0625    0.0000 N   0  0  0  0  0  0  0  0  0  0  0  0
    3.5724   -1.2375    0.0000 C   0  0  0  0  0  0  0  0  0  0  0  0
    3.5724   -2.0625    0.0000 O   0  0  0  0  0  0  0  0  0  0  0  0
    1.4289   -2.4750    0.0000 R#  0  0  0  0  0  0  0  0  0  0  0  0
    4.2868   -0.8250    0.0000 R#  0  0  0  0  0  0  0  0  0  0  0  0
  2  1  1  1
  2  3  1  0
  3  4  1  1
  4  5  1  0
  5  6  1  0
  6  7  1  0
  7  8  1  0
  8  9  1  0
  9 10  1  0
 10 11  1  0
  6 11  1  0
  3 12  1  0
 12 15  1  0
  2 13  1  0
 13 16  1  0
 13 14  2  0
M  RGP  2  15   1  16   2
V   15 *
V   16 *
M  END
>  <m_name>  (181) 
(2R,3S)-3-amino-5-cyclohexyl-2-hydroxypentanoic acid

>  <symbol>  (181) 
Cap

>  <m_abbr>  (181) 
Cap

>  <m_type>  (181) 
aa

>  <m_subtype>  (181) 
non-natural

>  <m_Rgroups>  (181) 
H,OH,None,None

>  <m_RgroupIdx>  (181) 
14,15,None,None

>  <m_attachmentPointIdx>  (181) 
11,12,None,None

>  <natAnalog>  (181) 
X

>  <pdbName>  (181) 
CCF

$$$$

     RDKit          2D

 11 10  0  0  0  0  0  0  0  0999 V2000
    0.0000   -1.4289    0.0000 C   0  0  0  0  0  0  0  0  0  0  0  0
    0.8250   -1.4289    0.0000 C   0  0  0  0  0  0  0  0  0  0  0  0
    1.2375   -2.1434    0.0000 S   0  0  0  0  0  0  0  0  0  0  0  0
    2.0625   -2.1434    0.0000 S   0  0  0  0  0  0  0  0  0  0  0  0
    2.4750   -2.8579    0.0000 C   0  0  0  0  0  0  0  0  0  0  0  0
    3.3000   -2.8579    0.0000 C   0  0  0  0  0  0  0  0  0  0  0  0
    3.7125   -3.5724    0.0000 N   0  0  0  0  0  0  0  0  0  0  0  0
    3.7125   -2.1434    0.0000 C   0  0  0  0  0  0  0  0  0  0  0  0
    4.5375   -2.1434    0.0000 O   0  0  0  0  0  0  0  0  0  0  0  0
    4.5375   -3.5724    0.0000 R#  0  0  0  0  0  0  0  0  0  0  0  0
    3.3000   -1.4289    0.0000 R#  0  0  0  0  0  0  0  0  0  0  0  0
  1  2  1  0
  2  3  1  0
  3  4  1  0
  4  5  1  0
  6  5  1  1
  6  7  1  0
  7 10  1  0
  6  8  1  0
  8 11  1  0
  8  9  2  0
M  RGP  2  10   1  11   2
V   10 *
V   11 *
M  END
>  <m_name>  (182) 
(2R)-2-amino-3-(ethyldisulfanyl)propanoic acid

>  <symbol>  (182) 
Cys_SEt

>  <m_abbr>  (182) 
Cys_SEt

>  <m_type>  (182) 
aa

>  <m_subtype>  (182) 
non-natural

>  <m_Rgroups>  (182) 
H,OH,None,None

>  <m_RgroupIdx>  (182) 
9,10,None,None

>  <m_attachmentPointIdx>  (182) 
6,7,None,None

>  <natAnalog>  (182) 
C

>  <pdbName>  (182) 
CY5

$$$$

     RDKit          2D

 15 14  0  0  0  0  0  0  0  0999 V2000
    7.2849    3.3809    0.0000 N   0  0  0  0  0  0  0  0  0  0  0  0
    7.2849    2.5559    0.0000 C   0  0  0  0  0  0  0  0  0  0  0  0
    6.5704    2.1434    0.0000 C   0  0  0  0  0  0  0  0  0  0  0  0
    5.8559    2.5559    0.0000 C   0  0  0  0  0  0  0  0  0  0  0  0
    5.1414    2.1434    0.0000 C   0  0  0  0  0  0  0  0  0  0  0  0
    4.4270    2.5559    0.0000 C   0  0  0  0  0  0  0  0  0  0  0  0
    3.7125    2.1434    0.0000 C   0  0  0  0  0  0  0  0  0  0  0  0
    2.9980    2.5559    0.0000 N   0  0  0  0  0  0  0  0  0  0  0  0
    3.7125    1.3184    0.0000 C   0  0  0  0  0  0  0  0  0  0  0  0
    2.9980    0.9059    0.0000 O   0  0  0  0  0  0  0  0  0  0  0  0
    7.9993    2.1434    0.0000 C   0  0  0  0  0  0  0  0  0  0  0  0
    8.7138    2.5559    0.0000 O   0  0  0  0  0  0  0  0  0  0  0  0
    7.9993    1.3184    0.0000 O   0  0  0  0  0  0  0  0  0  0  0  0
    2.2836    2.1434    0.0000 R#  0  0  0  0  0  0  0  0  0  0  0  0
    4.4270    0.9059    0.0000 R#  0  0  0  0  0  0  0  0  0  0  0  0
  1  2  1  0
  2  3  1  0
  3  4  1  0
  4  5  1  0
  5  6  1  0
  7  6  1  1
  7  8  1  0
  8 14  1  0
  7  9  1  0
  9 15  1  0
  9 10  2  0
  2 11  1  0
 11 12  1  0
 11 13  2  0
M  RGP  2  14   1  15   2
V   14 *
V   15 *
M  END
>  <m_name>  (183) 
2,7-Diaminosuberic acid

>  <symbol>  (183) 
Dsu

>  <m_abbr>  (183) 
Dsu

>  <m_type>  (183) 
aa

>  <m_subtype>  (183) 
non-natural

>  <m_Rgroups>  (183) 
H,OH,None,None

>  <m_RgroupIdx>  (183) 
13,14,None,None

>  <m_attachmentPointIdx>  (183) 
7,8,None,None

>  <natAnalog>  (183) 
X

>  <pdbName>  (183) 
DZQ

$$$$

     RDKit          2D

 20 20  0  0  0  0  0  0  0  0999 V2000
    6.2684    8.8243    0.0000 N   0  0  0  0  0  0  0  0  0  0  0  0
    5.8559    8.1099    0.0000 C   0  0  0  0  0  0  0  0  0  0  0  0
    6.2684    7.3954    0.0000 C   0  0  0  0  0  0  0  0  0  0  0  0
    5.8559    6.6809    0.0000 C   0  0  0  0  0  0  0  0  0  0  0  0
    5.0309    6.6809    0.0000 N   0  0  0  0  0  0  0  0  0  0  0  0
    4.6184    5.9664    0.0000 C   0  0  0  0  0  0  0  0  0  0  0  0
    3.7934    5.9664    0.0000 C   0  0  0  0  0  0  0  0  0  0  0  0
    3.3809    6.6809    0.0000 O   0  0  0  0  0  0  0  0  0  0  0  0
    3.3809    5.2520    0.0000 N   0  0  0  0  0  0  0  0  0  0  0  0
    2.5559    5.2520    0.0000 C   0  0  0  0  0  0  0  0  0  0  0  0
    2.1434    4.5375    0.0000 C   0  0  0  0  0  0  0  0  0  0  0  0
    1.3184    4.5375    0.0000 N   0  0  0  0  0  0  0  0  0  0  0  0
    3.7934    4.5375    0.0000 C   0  0  0  0  0  0  0  0  0  0  0  0
    4.6184    4.5375    0.0000 C   0  0  0  0  0  0  0  0  0  0  0  0
    5.0309    3.8230    0.0000 O   0  0  0  0  0  0  0  0  0  0  0  0
    4.6184    7.3954    0.0000 C   0  0  0  0  0  0  0  0  0  0  0  0
    3.7934    7.3954    0.0000 O   0  0  0  0  0  0  0  0  0  0  0  0
    5.0309    8.1099    0.0000 N   0  0  0  0  0  0  0  0  0  0  0  0
    0.9059    3.8230    0.0000 R#  0  0  0  0  0  0  0  0  0  0  0  0
    5.0309    5.2520    0.0000 R#  0  0  0  0  0  0  0  0  0  0  0  0
  1  2  1  0
  2  3  1  0
  3  4  2  0
  4  5  1  0
  5  6  1  0
  6  7  1  0
  7  8  2  0
  7  9  1  0
  9 10  1  0
 10 11  1  0
 11 12  1  0
 12 19  1  0
  9 13  1  0
 13 14  1  0
 14 20  1  0
 14 15  2  0
  5 16  1  0
 16 17  2  0
 16 18  1  0
  2 18  2  0
M  RGP  2  19   1  20   2
V   19 *
V   20 *
M  END
>  <m_name>  (184) 
PNA Cytosine

>  <symbol>  (184) 
pnC

>  <m_abbr>  (184) 
pnC

>  <m_type>  (184) 
aa

>  <m_subtype>  (184) 
non-natural

>  <m_Rgroups>  (184) 
H,OH,None,None

>  <m_RgroupIdx>  (184) 
18,19,None,None

>  <m_attachmentPointIdx>  (184) 
11,13,None,None

>  <natAnalog>  (184) 
X

>  <pdbName>  (184) 
PN9

$$$$

     RDKit          2D

 23 24  0  0  0  0  0  0  0  0999 V2000
    1.5807    3.4692    0.0000 N   0  0  0  0  0  0  0  0  0  0  0  0
    0.9676    4.0212    0.0000 C   0  0  0  0  0  0  0  0  0  0  0  0
    0.1830    3.7663    0.0000 N   0  0  0  0  0  0  0  0  0  0  0  0
   -0.4301    4.3183    0.0000 C   0  0  0  0  0  0  0  0  0  0  0  0
   -1.2506    4.2321    0.0000 N   0  0  0  0  0  0  0  0  0  0  0  0
   -1.6631    3.5176    0.0000 C   0  0  0  0  0  0  0  0  0  0  0  0
   -2.4881    3.5176    0.0000 C   0  0  0  0  0  0  0  0  0  0  0  0
   -2.9006    4.2321    0.0000 O   0  0  0  0  0  0  0  0  0  0  0  0
   -2.9006    2.8031    0.0000 N   0  0  0  0  0  0  0  0  0  0  0  0
   -3.7256    2.8031    0.0000 C   0  0  0  0  0  0  0  0  0  0  0  0
   -4.1381    2.0886    0.0000 C   0  0  0  0  0  0  0  0  0  0  0  0
   -4.9631    2.0886    0.0000 N   0  0  0  0  0  0  0  0  0  0  0  0
   -2.4881    2.0886    0.0000 C   0  0  0  0  0  0  0  0  0  0  0  0
   -1.6631    2.0886    0.0000 C   0  0  0  0  0  0  0  0  0  0  0  0
   -1.2506    1.3742    0.0000 O   0  0  0  0  0  0  0  0  0  0  0  0
   -1.5861    4.9857    0.0000 C   0  0  0  0  0  0  0  0  0  0  0  0
   -0.9730    5.5378    0.0000 N   0  0  0  0  0  0  0  0  0  0  0  0
   -0.2586    5.1253    0.0000 C   0  0  0  0  0  0  0  0  0  0  0  0
    0.5261    5.3802    0.0000 C   0  0  0  0  0  0  0  0  0  0  0  0
    0.6976    6.1872    0.0000 O   0  0  0  0  0  0  0  0  0  0  0  0
    1.1391    4.8282    0.0000 N   0  0  0  0  0  0  0  0  0  0  0  0
   -5.3756    1.3742    0.0000 R#  0  0  0  0  0  0  0  0  0  0  0  0
   -1.2506    2.8031    0.0000 R#  0  0  0  0  0  0  0  0  0  0  0  0
  1  2  1  0
  2  3  2  0
  3  4  1  0
  4  5  1  0
  5  6  1  0
  6  7  1  0
  7  8  2  0
  7  9  1  0
  9 10  1  0
 10 11  1  0
 11 12  1  0
 12 22  1  0
  9 13  1  0
 13 14  1  0
 14 23  1  0
 14 15  2  0
  5 16  1  0
 16 17  2  0
 17 18  1  0
  4 18  2  0
 18 19  1  0
 19 20  2  0
 19 21  1  0
  2 21  1  0
M  RGP  2  22   1  23   2
V   22 *
V   23 *
M  END
>  <m_name>  (185) 
PNA Guanine

>  <symbol>  (185) 
pnG

>  <m_abbr>  (185) 
pnG

>  <m_type>  (185) 
aa

>  <m_subtype>  (185) 
non-natural

>  <m_Rgroups>  (185) 
H,OH,None,None

>  <m_RgroupIdx>  (185) 
21,22,None,None

>  <m_attachmentPointIdx>  (185) 
11,13,None,None

>  <natAnalog>  (185) 
X

>  <pdbName>  (185) 
PJI

$$$$

     RDKit          2D

 22 24  0  0  0  0  0  0  0  0999 V2000
   -1.4289   -2.4750    0.0000 N   0  0  0  0  0  0  0  0  0  0  0  0
   -1.4289   -1.6500    0.0000 C   0  0  0  0  0  0  0  0  0  0  0  0
   -0.7145   -1.2375    0.0000 C   0  0  0  0  0  0  0  0  0  0  0  0
    0.0000   -1.6500    0.0000 N   0  0  0  0  0  0  0  0  0  0  0  0
    0.0000   -2.4750    0.0000 C   0  0  0  0  0  0  0  0  0  0  0  0
   -0.7145   -2.8875    0.0000 C   0  0  0  0  0  0  0  0  0  0  0  0
    0.7145   -1.2375    0.0000 C   0  0  0  0  0  0  0  0  0  0  0  0
    0.7145   -0.4125    0.0000 C   0  0  0  0  0  0  0  0  0  0  0  0
    1.4289    0.0000    0.0000 C   0  0  0  0  0  0  0  0  0  0  0  0
    2.1434   -0.4125    0.0000 C   0  0  0  0  0  0  0  0  0  0  0  0
    2.8579    0.0000    0.0000 C   0  0  0  0  0  0  0  0  0  0  0  0
    3.5724   -0.4125    0.0000 C   0  0  0  0  0  0  0  0  0  0  0  0
    3.5724   -1.2375    0.0000 N   0  0  0  0  0  0  0  0  0  0  0  0
    4.2868   -1.6500    0.0000 C   0  0  0  0  0  0  0  0  0  0  0  0
    4.2868   -2.4750    0.0000 C   0  0  0  0  0  0  0  0  0  0  0  0
    3.5724   -2.8875    0.0000 O   0  0  0  0  0  0  0  0  0  0  0  0
    2.8579   -1.6500    0.0000 C   0  0  0  0  0  0  0  0  0  0  0  0
    2.8579   -2.4750    0.0000 O   0  0  0  0  0  0  0  0  0  0  0  0
    2.1434   -1.2375    0.0000 C   0  0  0  0  0  0  0  0  0  0  0  0
    1.4289   -1.6500    0.0000 C   0  0  0  0  0  0  0  0  0  0  0  0
   -2.1434   -2.8875    0.0000 R#  0  0  0  0  0  0  0  0  0  0  0  0
    5.0013   -2.8875    0.0000 R#  0  0  0  0  0  0  0  0  0  0  0  0
 21  1  1  0
  1  2  1  0
  2  3  1  0
  3  4  1  0
  4  5  1  0
  5  6  1  0
  1  6  1  0
  4  7  1  0
  7  8  2  0
  8  9  1  0
  9 10  2  0
 10 11  1  0
 11 12  2  0
 12 13  1  0
 13 14  1  0
 14 15  1  0
 15 22  1  0
 15 16  2  0
 13 17  1  0
 17 18  2  0
 17 19  1  0
 10 19  1  0
 19 20  2  0
  7 20  1  0
M  RGP  2  21   1  22   2
V   21 *
V   22 *
M  END
>  <m_name>  (186) 
2-[1-oxo-7-(piperazin-1-yl)-1,2-dihydroisoquinolin-2-yl]acetic acid

>  <symbol>  (186) 
Pqa

>  <m_abbr>  (186) 
Pqa

>  <m_type>  (186) 
aa

>  <m_subtype>  (186) 
non-natural

>  <m_Rgroups>  (186) 
H,OH,None,None

>  <m_RgroupIdx>  (186) 
20,21,None,None

>  <m_attachmentPointIdx>  (186) 
0,14,None,None

>  <natAnalog>  (186) 
X

>  <pdbName>  (186) 
PQF

$$$$

     RDKit          2D

 11 11  0  0  0  0  0  0  0  0999 V2000
    0.5678    1.9393    0.0000 C   0  0  0  0  0  0  0  0  0  0  0  0
    0.5678    1.1143    0.0000 C   0  0  0  0  0  0  0  0  0  0  0  0
    1.2352    0.6294    0.0000 C   0  0  0  0  0  0  0  0  0  0  0  0
    0.9803   -0.1553    0.0000 N   0  0  0  0  0  0  0  0  0  0  0  0
    0.1553   -0.1553    0.0000 C   0  0  0  0  0  0  0  0  0  0  0  0
   -0.0997    0.6294    0.0000 C   0  0  0  0  0  0  0  0  0  0  0  0
   -0.8843    0.8843    0.0000 O   0  0  0  0  0  0  0  0  0  0  0  0
   -0.3297   -0.8227    0.0000 C   0  0  0  0  0  0  0  0  0  0  0  0
   -1.1501   -0.7365    0.0000 O   0  0  0  0  0  0  0  0  0  0  0  0
    1.4652   -0.8227    0.0000 R#  0  0  0  0  0  0  0  0  0  0  0  0
    0.0059   -1.5764    0.0000 R#  0  0  0  0  0  0  0  0  0  0  0  0
  1  2  1  0
  2  3  1  0
  3  4  1  0
  4 10  1  0
  5  4  1  0
  5  6  1  0
  2  6  1  0
  6  7  1  0
  5  8  1  6
  8 11  1  0
  8  9  2  0
M  RGP  2  10   1  11   2
V   10 *
V   11 *
M  END
>  <m_name>  (187) 
(2S)-3-hydroxy-4-methylpyrrolidine-2-carboxylic acid

>  <symbol>  (187) 
Pro_4Me3OH

>  <m_abbr>  (187) 
Pro_4Me3OH

>  <m_type>  (187) 
aa

>  <m_subtype>  (187) 
non-natural

>  <m_Rgroups>  (187) 
H,OH,None,None

>  <m_RgroupIdx>  (187) 
9,10,None,None

>  <m_attachmentPointIdx>  (187) 
3,7,None,None

>  <natAnalog>  (187) 
P

>  <pdbName>  (187) 
PRG

$$$$

     RDKit          2D

  6  5  0  0  0  0  0  0  0  0999 V2000
    0.8250   -1.4289    0.0000 N   0  0  0  0  0  0  0  0  0  0  0  0
    1.2375   -0.7145    0.0000 C   0  0  0  0  0  0  0  0  0  0  0  0
    2.0625   -0.7145    0.0000 C   0  0  0  0  0  0  0  0  0  0  0  0
    2.4750   -1.4289    0.0000 O   0  0  0  0  0  0  0  0  0  0  0  0
    0.8250    0.0000    0.0000 C   0  0  0  0  0  0  0  0  0  0  0  0
    0.0000    0.0000    0.0000 R#  0  0  0  0  0  0  0  0  0  0  0  0
  2  1  1  6
  2  3  1  0
  3  4  1  0
  2  5  1  0
  5  6  1  0
M  RGP  1   6   2
V    6 *
M  END
>  <m_name>  (188) 
(2R)-2-aminopropan-1-ol

>  <symbol>  (188) 
D_Ala_ol

>  <m_abbr>  (188) 
D_Ala_ol

>  <m_type>  (188) 
aa

>  <m_subtype>  (188) 
non-natural

>  <m_Rgroups>  (188) 
None,OH,None,None

>  <m_RgroupIdx>  (188) 
None,5,None,None

>  <m_attachmentPointIdx>  (188) 
None,4,None,None

>  <natAnalog>  (188) 
A

>  <pdbName>  (188) 
D0D

$$$$

     RDKit          2D

 11 11  0  0  0  0  0  0  0  0999 V2000
   -0.3583    1.0310    0.0000 N   0  0  0  0  0  0  0  0  0  0  0  0
   -0.3577    0.2060    0.0000 C   0  0  0  0  0  0  0  0  0  0  0  0
   -1.0718   -0.2071    0.0000 C   0  0  0  0  0  0  0  0  0  0  0  0
   -1.7866    0.2048    0.0000 O   0  0  0  0  0  0  0  0  0  0  0  0
    0.3570   -0.2060    0.0000 C   0  0  0  0  0  0  0  0  0  0  0  0
    0.3577   -1.0310    0.0000 C   0  0  0  0  0  0  0  0  0  0  0  0
    1.0724   -1.4428    0.0000 C   0  0  0  0  0  0  0  0  0  0  0  0
    1.7866   -1.0298    0.0000 C   0  0  0  0  0  0  0  0  0  0  0  0
    1.7859   -0.2048    0.0000 C   0  0  0  0  0  0  0  0  0  0  0  0
    1.0711    0.2071    0.0000 C   0  0  0  0  0  0  0  0  0  0  0  0
   -1.0731    1.4428    0.0000 R#  0  0  0  0  0  0  0  0  0  0  0  0
  1  2  1  0
  2  3  1  0
  3  4  1  0
  2  5  1  0
  5  6  2  0
  6  7  1  0
  7  8  2  0
  8  9  1  0
  9 10  2  0
 10  5  1  0
 11  1  1  0
M  RGP  1  11   1
V   11 *
M  END
>  <m_name>  (189) 
2-amino-2-methylpropan-1-ol

>  <symbol>  (189) 
D_Phg_ol

>  <m_abbr>  (189) 
D_Phg_ol

>  <m_type>  (189) 
aa

>  <m_subtype>  (189) 
non-natural

>  <m_Rgroups>  (189) 
H,None,None,None

>  <m_RgroupIdx>  (189) 
10,None,None,None

>  <m_attachmentPointIdx>  (189) 
0,None,None,None

>  <natAnalog>  (189) 
G

>  <pdbName>  (189) 
D0I

$$$$

     RDKit          2D

  8  7  0  0  0  0  0  0  0  0999 V2000
    2.4750    0.0000    0.0000 C   0  0  0  0  0  0  0  0  0  0  0  0
    2.0625    0.7145    0.0000 C   0  0  0  0  0  0  0  0  0  0  0  0
    2.4750    1.4289    0.0000 O   0  0  0  0  0  0  0  0  0  0  0  0
    1.2375    0.7145    0.0000 C   0  0  0  0  0  0  0  0  0  0  0  0
    0.8250    1.4289    0.0000 C   0  0  0  0  0  0  0  0  0  0  0  0
    0.0000    1.4289    0.0000 O   0  0  0  0  0  0  0  0  0  0  0  0
    0.8250    0.0000    0.0000 N   0  0  0  0  0  0  0  0  0  0  0  0
    0.0000    0.0000    0.0000 R#  0  0  0  0  0  0  0  0  0  0  0  0
  2  1  1  6
  2  3  1  0
  2  4  1  0
  4  5  1  6
  5  6  1  0
  4  7  1  0
  7  8  1  0
M  RGP  1   8   1
V    8 *
M  END
>  <m_name>  (190) 
(2R,3R)-2-aminobutane-1,3-diol

>  <symbol>  (190) 
D_Thr_ol

>  <m_abbr>  (190) 
D_Thr_ol

>  <m_type>  (190) 
aa

>  <m_subtype>  (190) 
non-natural

>  <m_Rgroups>  (190) 
H,None,None,None

>  <m_RgroupIdx>  (190) 
7,None,None,None

>  <m_attachmentPointIdx>  (190) 
6,None,None,None

>  <natAnalog>  (190) 
T

>  <pdbName>  (190) 
D06

$$$$

     RDKit          2D

  4  3  0  0  0  0  0  0  0  0999 V2000
    2.0625   -0.7145    0.0000 O   0  0  0  0  0  0  0  0  0  0  0  0
    1.2375   -0.7145    0.0000 C   0  0  0  0  0  0  0  0  0  0  0  0
    0.8250    0.0000    0.0000 N   0  0  0  0  0  0  0  0  0  0  0  0
    0.0000    0.0000    0.0000 R#  0  0  0  0  0  0  0  0  0  0  0  0
  1  2  1  0
  2  3  1  0
  3  4  1  0
M  RGP  1   4   1
V    4 *
M  END
>  <m_name>  (191) 
aminomethanol

>  <symbol>  (191) 
Gly_ol

>  <m_abbr>  (191) 
Gly_ol

>  <m_type>  (191) 
aa

>  <m_subtype>  (191) 
non-natural

>  <m_Rgroups>  (191) 
H,None,None,None

>  <m_RgroupIdx>  (191) 
3,None,None,None

>  <m_attachmentPointIdx>  (191) 
2,None,None,None

>  <natAnalog>  (191) 
G

>  <pdbName>  (191) 
GA1

$$$$

     RDKit          2D

  6  5  0  0  0  0  0  0  0  0999 V2000
    0.8250   -1.4289    0.0000 C   0  0  0  0  0  0  0  0  0  0  0  0
    1.2375   -0.7145    0.0000 C   0  0  0  0  0  0  0  0  0  0  0  0
    2.0625   -0.7145    0.0000 C   0  0  0  0  0  0  0  0  0  0  0  0
    2.4750   -1.4289    0.0000 O   0  0  0  0  0  0  0  0  0  0  0  0
    0.8250    0.0000    0.0000 N   0  0  0  0  0  0  0  0  0  0  0  0
    0.0000    0.0000    0.0000 R#  0  0  0  0  0  0  0  0  0  0  0  0
  2  1  1  6
  2  3  1  0
  3  4  1  0
  2  5  1  0
  5  6  1  0
M  RGP  1   6   1
V    6 *
M  END
>  <m_name>  (192) 
(2S)-2-aminopropan-1-ol

>  <symbol>  (192) 
Ala_ol

>  <m_abbr>  (192) 
Ala_ol

>  <m_type>  (192) 
aa

>  <m_subtype>  (192) 
non-natural

>  <m_Rgroups>  (192) 
H,None,None,None

>  <m_RgroupIdx>  (192) 
5,None,None,None

>  <m_attachmentPointIdx>  (192) 
4,None,None,None

>  <natAnalog>  (192) 
A

>  <pdbName>  (192) 
AH5

$$$$

     RDKit          2D

 10  9  0  0  0  0  0  0  0  0999 V2000
    0.0000   -1.4289    0.0000 N   0  0  0  0  0  0  0  0  0  0  0  0
    0.8250   -1.4289    0.0000 C   0  0  0  0  0  0  0  0  0  0  0  0
    1.2375   -2.1434    0.0000 C   0  0  0  0  0  0  0  0  0  0  0  0
    2.0625   -2.1434    0.0000 C   0  0  0  0  0  0  0  0  0  0  0  0
    2.4750   -2.8579    0.0000 C   0  0  0  0  0  0  0  0  0  0  0  0
    3.3000   -2.8579    0.0000 C   0  0  0  0  0  0  0  0  0  0  0  0
    3.7125   -3.5724    0.0000 C   0  0  0  0  0  0  0  0  0  0  0  0
    4.5375   -3.5724    0.0000 O   0  0  0  0  0  0  0  0  0  0  0  0
    3.7125   -2.1434    0.0000 N   0  0  0  0  0  0  0  0  0  0  0  0
    4.5375   -2.1434    0.0000 R#  0  0  0  0  0  0  0  0  0  0  0  0
  1  2  1  0
  2  3  1  0
  3  4  1  0
  4  5  1  0
  6  5  1  6
  6  7  1  0
  7  8  1  0
  6  9  1  0
  9 10  1  0
M  RGP  1  10   1
V   10 *
M  END
>  <m_name>  (193) 
(2S)-2,6-diaminohexan-1-ol

>  <symbol>  (193) 
Lys_ol

>  <m_abbr>  (193) 
Lys_ol

>  <m_type>  (193) 
aa

>  <m_subtype>  (193) 
non-natural

>  <m_Rgroups>  (193) 
H,None,None,None

>  <m_RgroupIdx>  (193) 
9,None,None,None

>  <m_attachmentPointIdx>  (193) 
8,None,None,None

>  <natAnalog>  (193) 
K

>  <pdbName>  (193) 
LAW

$$$$

     RDKit          2D

 11 11  0  0  0  0  0  0  0  0999 V2000
    0.0000    3.3000    0.0000 O   0  0  0  0  0  0  0  0  0  0  0  0
    0.0000    2.4750    0.0000 C   0  0  0  0  0  0  0  0  0  0  0  0
    0.7145    2.0625    0.0000 C   0  0  0  0  0  0  0  0  0  0  0  0
    1.4289    2.4750    0.0000 N   0  0  0  0  0  0  0  0  0  0  0  0
    0.7145    1.2375    0.0000 C   0  0  0  0  0  0  0  0  0  0  0  0
    1.4289    0.8250    0.0000 C   0  0  0  0  0  0  0  0  0  0  0  0
    1.4289    0.0000    0.0000 C   0  0  0  0  0  0  0  0  0  0  0  0
    0.7145   -0.4125    0.0000 C   0  0  0  0  0  0  0  0  0  0  0  0
    0.0000    0.0000    0.0000 C   0  0  0  0  0  0  0  0  0  0  0  0
    0.0000    0.8250    0.0000 C   0  0  0  0  0  0  0  0  0  0  0  0
    2.1434    2.0625    0.0000 R#  0  0  0  0  0  0  0  0  0  0  0  0
  1  2  1  0
  3  2  1  1
  3  4  1  0
  4 11  1  0
  3  5  1  0
  5  6  2  0
  6  7  1  0
  7  8  2  0
  8  9  1  0
  9 10  2  0
  5 10  1  0
M  RGP  1  11   1
V   11 *
M  END
>  <m_name>  (194) 
(2S)-2-amino-2-phenylethan-1-ol

>  <symbol>  (194) 
Phg_ol

>  <m_abbr>  (194) 
Phg_ol

>  <m_type>  (194) 
aa

>  <m_subtype>  (194) 
non-natural

>  <m_Rgroups>  (194) 
H,None,None,None

>  <m_RgroupIdx>  (194) 
10,None,None,None

>  <m_attachmentPointIdx>  (194) 
3,None,None,None

>  <natAnalog>  (194) 
G

>  <pdbName>  (194) 
PJN

$$$$

     RDKit          2D

  8  8  0  0  0  0  0  0  0  0999 V2000
   -0.1467    2.3518    0.0000 O   0  0  0  0  0  0  0  0  0  0  0  0
    0.5678    1.9393    0.0000 C   0  0  0  0  0  0  0  0  0  0  0  0
    0.5678    1.1143    0.0000 C   0  0  0  0  0  0  0  0  0  0  0  0
    1.2352    0.6294    0.0000 C   0  0  0  0  0  0  0  0  0  0  0  0
    0.9803   -0.1553    0.0000 C   0  0  0  0  0  0  0  0  0  0  0  0
    0.1553   -0.1553    0.0000 C   0  0  0  0  0  0  0  0  0  0  0  0
   -0.0997    0.6294    0.0000 N   0  0  0  0  0  0  0  0  0  0  0  0
   -0.8843    0.8843    0.0000 R#  0  0  0  0  0  0  0  0  0  0  0  0
  1  2  1  0
  3  2  1  6
  3  4  1  0
  4  5  1  0
  5  6  1  0
  6  7  1  0
  3  7  1  0
  7  8  1  0
M  RGP  1   8   1
V    8 *
M  END
>  <m_name>  (195) 
[(2S)-pyrrolidin-2-yl]methanol

>  <symbol>  (195) 
Pro_ol

>  <m_abbr>  (195) 
Pro_ol

>  <m_type>  (195) 
aa

>  <m_subtype>  (195) 
non-natural

>  <m_Rgroups>  (195) 
H,None,None,None

>  <m_RgroupIdx>  (195) 
7,None,None,None

>  <m_attachmentPointIdx>  (195) 
6,None,None,None

>  <natAnalog>  (195) 
P

>  <pdbName>  (195) 
PJO

$$$$

     RDKit          2D

  8  7  0  0  0  0  0  0  0  0999 V2000
    2.4750    0.0000    0.0000 C   0  0  0  0  0  0  0  0  0  0  0  0
    2.0625    0.7145    0.0000 C   0  0  0  0  0  0  0  0  0  0  0  0
    2.4750    1.4289    0.0000 C   0  0  0  0  0  0  0  0  0  0  0  0
    1.2375    0.7145    0.0000 C   0  0  0  0  0  0  0  0  0  0  0  0
    0.8250    1.4289    0.0000 C   0  0  0  0  0  0  0  0  0  0  0  0
    0.0000    1.4289    0.0000 O   0  0  0  0  0  0  0  0  0  0  0  0
    0.8250    0.0000    0.0000 N   0  0  0  0  0  0  0  0  0  0  0  0
    0.0000    0.0000    0.0000 R#  0  0  0  0  0  0  0  0  0  0  0  0
  1  2  1  0
  2  3  1  0
  4  2  1  0
  4  5  1  6
  5  6  1  0
  4  7  1  0
  7  8  1  0
M  RGP  1   8   1
V    8 *
M  END
>  <m_name>  (196) 
(2S)-2-amino-3-methylbutan-1-ol

>  <symbol>  (196) 
Val_ol

>  <m_abbr>  (196) 
Val_ol

>  <m_type>  (196) 
aa

>  <m_subtype>  (196) 
non-natural

>  <m_Rgroups>  (196) 
H,None,None,None

>  <m_RgroupIdx>  (196) 
7,None,None,None

>  <m_attachmentPointIdx>  (196) 
6,None,None,None

>  <natAnalog>  (196) 
V

>  <pdbName>  (196) 
VAG

$$$$

     RDKit          2D

  6  5  0  0  0  0  0  0  0  0999 V2000
    0.8250   -1.4289    0.0000 C   0  0  0  0  0  0  0  0  0  0  0  0
    1.2375   -0.7145    0.0000 C   0  0  0  0  0  0  0  0  0  0  0  0
    2.0625   -0.7145    0.0000 N   0  0  0  0  0  0  0  0  0  0  0  0
    0.8250    0.0000    0.0000 C   0  0  0  0  0  0  0  0  0  0  0  0
    0.0000    0.0000    0.0000 O   0  0  0  0  0  0  0  0  0  0  0  0
    2.4750   -1.4289    0.0000 R#  0  0  0  0  0  0  0  0  0  0  0  0
  2  1  1  1
  2  3  1  0
  3  6  1  0
  2  4  1  0
  4  5  2  0
M  RGP  1   6   1
V    6 *
M  END
>  <m_name>  (197) 
(2S)-2-aminopropanal

>  <symbol>  (197) 
Ala_al

>  <m_abbr>  (197) 
Ala_al

>  <m_type>  (197) 
aa

>  <m_subtype>  (197) 
non-natural

>  <m_Rgroups>  (197) 
H,None,None,None

>  <m_RgroupIdx>  (197) 
5,None,None,None

>  <m_attachmentPointIdx>  (197) 
2,None,None,None

>  <natAnalog>  (197) 
A

>  <pdbName>  (197) 
AIE

$$$$

     RDKit          2D

 12 11  0  0  0  0  0  0  0  0999 V2000
    0.6974   -2.9487    0.0000 N   0  0  0  0  0  0  0  0  0  0  0  0
    1.2375   -3.5724    0.0000 C   0  0  0  0  0  0  0  0  0  0  0  0
    0.9675   -4.3519    0.0000 N   0  0  0  0  0  0  0  0  0  0  0  0
    2.0476   -3.4164    0.0000 N   0  0  0  0  0  0  0  0  0  0  0  0
    2.5877   -4.0401    0.0000 C   0  0  0  0  0  0  0  0  0  0  0  0
    3.3979   -3.8842    0.0000 C   0  0  0  0  0  0  0  0  0  0  0  0
    3.9379   -4.5078    0.0000 C   0  0  0  0  0  0  0  0  0  0  0  0
    4.7481   -4.3519    0.0000 C   0  0  0  0  0  0  0  0  0  0  0  0
    5.2882   -4.9755    0.0000 N   0  0  0  0  0  0  0  0  0  0  0  0
    5.0181   -3.5724    0.0000 C   0  0  0  0  0  0  0  0  0  0  0  0
    5.8283   -3.4164    0.0000 O   0  0  0  0  0  0  0  0  0  0  0  0
    6.0983   -4.8196    0.0000 R#  0  0  0  0  0  0  0  0  0  0  0  0
  1  2  1  0
  2  3  2  0
  2  4  1  0
  4  5  1  0
  5  6  1  0
  6  7  1  0
  8  7  1  1
  8  9  1  0
  9 12  1  0
  8 10  1  0
 10 11  2  0
M  RGP  1  12   1
V   12 *
M  END
>  <m_name>  (198) 
N''-[(4S)-4-amino-5-oxopentyl]guanidine

>  <symbol>  (198) 
Arg_al

>  <m_abbr>  (198) 
Arg_al

>  <m_type>  (198) 
aa

>  <m_subtype>  (198) 
non-natural

>  <m_Rgroups>  (198) 
H,None,None,None

>  <m_RgroupIdx>  (198) 
11,None,None,None

>  <m_attachmentPointIdx>  (198) 
8,None,None,None

>  <natAnalog>  (198) 
R

>  <pdbName>  (198) 
ARY

$$$$

     RDKit          2D

  9  8  0  0  0  0  0  0  0  0999 V2000
    0.5230    0.5230    0.0000 O   0  0  0  0  0  0  0  0  0  0  0  0
    1.2375    0.1105    0.0000 C   0  0  0  0  0  0  0  0  0  0  0  0
    1.9520    0.5230    0.0000 O   0  0  0  0  0  0  0  0  0  0  0  0
    1.2375   -0.7145    0.0000 C   0  0  0  0  0  0  0  0  0  0  0  0
    1.9520   -1.1270    0.0000 C   0  0  0  0  0  0  0  0  0  0  0  0
    1.9520   -1.9520    0.0000 N   0  0  0  0  0  0  0  0  0  0  0  0
    2.6664   -0.7145    0.0000 C   0  0  0  0  0  0  0  0  0  0  0  0
    3.3809   -1.1270    0.0000 O   0  0  0  0  0  0  0  0  0  0  0  0
    2.6664   -2.3645    0.0000 R#  0  0  0  0  0  0  0  0  0  0  0  0
  1  2  1  0
  2  3  2  0
  2  4  1  0
  5  4  1  1
  5  6  1  0
  6  9  1  0
  5  7  1  0
  7  8  2  0
M  RGP  1   9   1
V    9 *
M  END
>  <m_name>  (199) 
(3S)-3-amino-4-oxobutanoic acid

>  <symbol>  (199) 
Asp_al

>  <m_abbr>  (199) 
Asp_al

>  <m_type>  (199) 
aa

>  <m_subtype>  (199) 
non-natural

>  <m_Rgroups>  (199) 
H,None,None,None

>  <m_RgroupIdx>  (199) 
8,None,None,None

>  <m_attachmentPointIdx>  (199) 
5,None,None,None

>  <natAnalog>  (199) 
N

>  <pdbName>  (199) 
AII

$$$$

     RDKit          2D

 10  9  0  0  0  0  0  0  0  0999 V2000
    0.0000   -1.4289    0.0000 N   0  0  0  0  0  0  0  0  0  0  0  0
    0.8250   -1.4289    0.0000 C   0  0  0  0  0  0  0  0  0  0  0  0
    1.2375   -2.1434    0.0000 C   0  0  0  0  0  0  0  0  0  0  0  0
    2.0625   -2.1434    0.0000 C   0  0  0  0  0  0  0  0  0  0  0  0
    2.4750   -2.8579    0.0000 C   0  0  0  0  0  0  0  0  0  0  0  0
    3.3000   -2.8579    0.0000 C   0  0  0  0  0  0  0  0  0  0  0  0
    3.7125   -3.5724    0.0000 N   0  0  0  0  0  0  0  0  0  0  0  0
    3.7125   -2.1434    0.0000 C   0  0  0  0  0  0  0  0  0  0  0  0
    4.5375   -2.1434    0.0000 O   0  0  0  0  0  0  0  0  0  0  0  0
    4.5375   -3.5724    0.0000 R#  0  0  0  0  0  0  0  0  0  0  0  0
  1  2  1  0
  2  3  1  0
  3  4  1  0
  4  5  1  0
  6  5  1  1
  6  7  1  0
  7 10  1  0
  6  8  1  0
  8  9  2  0
M  RGP  1  10   1
V   10 *
M  END
>  <m_name>  (200) 
(2S)-2,6-diaminohexanal

>  <symbol>  (200) 
Lys_al

>  <m_abbr>  (200) 
Lys_al

>  <m_type>  (200) 
aa

>  <m_subtype>  (200) 
non-natural

>  <m_Rgroups>  (200) 
H,None,None,None

>  <m_RgroupIdx>  (200) 
9,None,None,None

>  <m_attachmentPointIdx>  (200) 
6,None,None,None

>  <natAnalog>  (200) 
K

>  <pdbName>  (200) 
LA0

$$$$

     RDKit          2D

  8  8  0  0  0  0  0  0  0  0999 V2000
    0.5678    1.1143    0.0000 N   0  0  0  0  0  0  0  0  0  0  0  0
    1.2352    0.6294    0.0000 C   0  0  0  0  0  0  0  0  0  0  0  0
    0.9803   -0.1553    0.0000 C   0  0  0  0  0  0  0  0  0  0  0  0
    0.1553   -0.1553    0.0000 C   0  0  0  0  0  0  0  0  0  0  0  0
   -0.0997    0.6294    0.0000 C   0  0  0  0  0  0  0  0  0  0  0  0
   -0.8843    0.8843    0.0000 C   0  0  0  0  0  0  0  0  0  0  0  0
   -1.4974    0.3323    0.0000 O   0  0  0  0  0  0  0  0  0  0  0  0
    0.5678    1.9393    0.0000 R#  0  0  0  0  0  0  0  0  0  0  0  0
  8  1  1  0
  1  2  1  0
  2  3  1  0
  3  4  1  0
  5  4  1  0
  5  1  1  0
  5  6  1  1
  6  7  2  0
M  RGP  1   8   1
V    8 *
M  END
>  <m_name>  (201) 
(2S)-pyrrolidine-2-carbaldehyde

>  <symbol>  (201) 
Pro_al

>  <m_abbr>  (201) 
Pro_al

>  <m_type>  (201) 
aa

>  <m_subtype>  (201) 
non-natural

>  <m_Rgroups>  (201) 
H,None,None,None

>  <m_RgroupIdx>  (201) 
7,None,None,None

>  <m_attachmentPointIdx>  (201) 
0,None,None,None

>  <natAnalog>  (201) 
P

>  <pdbName>  (201) 
PJR

$$$$

     RDKit          2D

  9  9  0  0  0  0  0  0  0  0999 V2000
    0.0000    2.4750    0.0000 N   0  0  0  0  0  0  0  0  0  0  0  0
    0.7145    2.0625    0.0000 C   0  0  0  0  0  0  0  0  0  0  0  0
    0.7145    1.2375    0.0000 C   0  0  0  0  0  0  0  0  0  0  0  0
    1.4289    0.8250    0.0000 C   0  0  0  0  0  0  0  0  0  0  0  0
    1.4289    0.0000    0.0000 C   0  0  0  0  0  0  0  0  0  0  0  0
    0.7145   -0.4125    0.0000 C   0  0  0  0  0  0  0  0  0  0  0  0
    0.0000    0.0000    0.0000 C   0  0  0  0  0  0  0  0  0  0  0  0
    0.0000    0.8250    0.0000 C   0  0  0  0  0  0  0  0  0  0  0  0
    0.0000    3.3000    0.0000 R#  0  0  0  0  0  0  0  0  0  0  0  0
  9  1  1  0
  1  2  1  0
  2  3  1  0
  3  4  2  0
  4  5  1  0
  5  6  2  0
  6  7  1  0
  7  8  2  0
  3  8  1  0
M  RGP  1   9   1
V    9 *
M  END
>  <m_name>  (202) 
C-Terminal 1-phenylmethanamine

>  <symbol>  (202) 
_NHBn

>  <m_abbr>  (202) 
_NHBn

>  <m_type>  (202) 
cap

>  <m_subtype>  (202) 
cap

>  <m_Rgroups>  (202) 
H,None,None,None

>  <m_RgroupIdx>  (202) 
8,None,None,None

>  <m_attachmentPointIdx>  (202) 
0,None,None,None

>  <natAnalog>  (202) 
X

>  <pdbName>  (202) 
NH0

$$$$

     RDKit          2D

  3  2  0  0  0  0  0  0  0  0999 V2000
    1.2375   -0.7145    0.0000 C   0  0  0  0  0  0  0  0  0  0  0  0
    1.9520   -1.1270    0.0000 N   0  0  0  0  0  0  0  0  0  0  0  0
    2.6664   -0.7145    0.0000 R#  0  0  0  0  0  0  0  0  0  0  0  0
  1  2  1  0
  2  3  1  0
M  RGP  1   3   1
V    3 *
M  END
>  <m_name>  (203) 
Methanamine

>  <symbol>  (203) 
NHMe

>  <m_abbr>  (203) 
NHMe

>  <m_type>  (203) 
cap

>  <m_subtype>  (203) 
cap

>  <m_Rgroups>  (203) 
H,None,None,None

>  <m_RgroupIdx>  (203) 
2,None,None,None

>  <m_attachmentPointIdx>  (203) 
1,None,None,None

>  <natAnalog>  (203) 
X

>  <pdbName>  (203) 
NB0

$$$$

     RDKit          2D

 12 11  0  0  0  0  0  0  0  0999 V2000
   -0.8250   -2.8579    0.0000 C   0  0  0  0  0  0  0  0  0  0  0  0
   -0.4125   -2.1434    0.0000 S   0  0  0  0  0  0  0  0  0  0  0  0
    0.3020   -2.5559    0.0000 O   0  0  0  0  0  0  0  0  0  0  0  0
   -1.1270   -1.7309    0.0000 O   0  0  0  0  0  0  0  0  0  0  0  0
    0.0000   -1.4289    0.0000 C   0  0  0  0  0  0  0  0  0  0  0  0
    0.8250   -1.4289    0.0000 C   0  0  0  0  0  0  0  0  0  0  0  0
    1.2375   -0.7145    0.0000 C   0  0  0  0  0  0  0  0  0  0  0  0
    2.0625   -0.7145    0.0000 N   0  0  0  0  0  0  0  0  0  0  0  0
    0.8250    0.0000    0.0000 C   0  0  0  0  0  0  0  0  0  0  0  0
    0.0000    0.0000    0.0000 O   0  0  0  0  0  0  0  0  0  0  0  0
    2.4750    0.0000    0.0000 R#  0  0  0  0  0  0  0  0  0  0  0  0
    1.2375    0.7145    0.0000 R#  0  0  0  0  0  0  0  0  0  0  0  0
  1  2  1  0
  2  3  2  0
  2  4  2  0
  2  5  1  0
  5  6  1  0
  7  6  1  1
  7  8  1  0
  8 11  1  0
  7  9  1  0
  9 12  1  0
  9 10  2  0
M  RGP  2  11   1  12   2
V   11 *
V   12 *
M  END
>  <m_name>  (204) 
(2S)-2-amino-4-methanesulfonylbutanoic acid

>  <symbol>  (204) 
Met_O2

>  <m_abbr>  (204) 
Met_O2

>  <m_type>  (204) 
aa

>  <m_subtype>  (204) 
non-natural

>  <m_Rgroups>  (204) 
H,OH,None,None

>  <m_RgroupIdx>  (204) 
10,11,None,None

>  <m_attachmentPointIdx>  (204) 
7,8,None,None

>  <natAnalog>  (204) 
M

>  <pdbName>  (204) 
MHJ

$$$$

     RDKit          2D

 14 14  0  0  0  0  0  0  0  0999 V2000
    0.7145    2.0625    0.0000 C   0  0  0  0  0  0  0  0  0  0  0  0
    0.7145    1.2375    0.0000 C   0  0  0  0  0  0  0  0  0  0  0  0
    1.4289    0.8250    0.0000 C   0  0  0  0  0  0  0  0  0  0  0  0
    1.4289    0.0000    0.0000 C   0  0  0  0  0  0  0  0  0  0  0  0
    0.7145   -0.4125    0.0000 C   0  0  0  0  0  0  0  0  0  0  0  0
    0.0000    0.0000    0.0000 C   0  0  0  0  0  0  0  0  0  0  0  0
    0.0000    0.8250    0.0000 C   0  0  0  0  0  0  0  0  0  0  0  0
   -0.7145    1.2375    0.0000 C   0  0  0  0  0  0  0  0  0  0  0  0
   -1.4289    0.8250    0.0000 C   0  0  0  0  0  0  0  0  0  0  0  0
   -2.1434    1.2375    0.0000 N   0  0  0  0  0  0  0  0  0  0  0  0
   -1.4289    0.0000    0.0000 C   0  0  0  0  0  0  0  0  0  0  0  0
   -0.7145   -0.4125    0.0000 O   0  0  0  0  0  0  0  0  0  0  0  0
   -2.8579    0.8250    0.0000 R#  0  0  0  0  0  0  0  0  0  0  0  0
   -2.1434   -0.4125    0.0000 R#  0  0  0  0  0  0  0  0  0  0  0  0
  1  2  1  0
  2  3  2  0
  3  4  1  0
  4  5  2  0
  5  6  1  0
  6  7  2  0
  2  7  1  0
  7  8  1  0
  9  8  1  1
  9 10  1  0
 10 13  1  0
  9 11  1  0
 11 14  1  0
 11 12  2  0
M  RGP  2  13   1  14   2
V   13 *
V   14 *
M  END
>  <m_name>  (205) 
(2S)-2-amino-3-(2-methylphenyl)propanoic acid

>  <symbol>  (205) 
Phe_2Me

>  <m_abbr>  (205) 
Phe_2Me

>  <m_type>  (205) 
aa

>  <m_subtype>  (205) 
non-natural

>  <m_Rgroups>  (205) 
H,OH,None,None

>  <m_RgroupIdx>  (205) 
12,13,None,None

>  <m_attachmentPointIdx>  (205) 
9,10,None,None

>  <natAnalog>  (205) 
F

>  <pdbName>  (205) 
PJU

$$$$

     RDKit          2D

 15 15  0  0  0  0  0  0  0  0999 V2000
    0.7145    2.0625    0.0000 Cl  0  0  0  0  0  0  0  0  0  0  0  0
    0.7145    1.2375    0.0000 C   0  0  0  0  0  0  0  0  0  0  0  0
    1.4289    0.8250    0.0000 C   0  0  0  0  0  0  0  0  0  0  0  0
    1.4289    0.0000    0.0000 C   0  0  0  0  0  0  0  0  0  0  0  0
    0.7145   -0.4125    0.0000 C   0  0  0  0  0  0  0  0  0  0  0  0
    0.7145   -1.2375    0.0000 C   0  0  0  0  0  0  0  0  0  0  0  0
    1.4289   -1.6500    0.0000 C   0  0  0  0  0  0  0  0  0  0  0  0
    1.4289   -2.4750    0.0000 N   0  0  0  0  0  0  0  0  0  0  0  0
    2.1434   -1.2375    0.0000 C   0  0  0  0  0  0  0  0  0  0  0  0
    2.1434   -0.4125    0.0000 O   0  0  0  0  0  0  0  0  0  0  0  0
    0.0000    0.0000    0.0000 C   0  0  0  0  0  0  0  0  0  0  0  0
    0.0000    0.8250    0.0000 C   0  0  0  0  0  0  0  0  0  0  0  0
   -0.7145    1.2375    0.0000 Cl  0  0  0  0  0  0  0  0  0  0  0  0
    2.1434   -2.8875    0.0000 R#  0  0  0  0  0  0  0  0  0  0  0  0
    2.8579   -1.6500    0.0000 R#  0  0  0  0  0  0  0  0  0  0  0  0
  1  2  1  0
  2  3  2  0
  3  4  1  0
  4  5  2  0
  5  6  1  0
  7  6  1  1
  7  8  1  0
  8 14  1  0
  7  9  1  0
  9 15  1  0
  9 10  2  0
  5 11  1  0
 11 12  2  0
  2 12  1  0
 12 13  1  0
M  RGP  2  14   1  15   2
V   14 *
V   15 *
M  END
>  <m_name>  (206) 
(2S)-2-amino-3-(3,4-dichlorophenyl)propanoic acid

>  <symbol>  (206) 
Phe_34diCl

>  <m_abbr>  (206) 
Phe_34diCl

>  <m_type>  (206) 
aa

>  <m_subtype>  (206) 
non-natural

>  <m_Rgroups>  (206) 
H,OH,None,None

>  <m_RgroupIdx>  (206) 
13,14,None,None

>  <m_attachmentPointIdx>  (206) 
7,8,None,None

>  <natAnalog>  (206) 
F

>  <pdbName>  (206) 
PJX

$$$$

     RDKit          2D

 14 14  0  0  0  0  0  0  0  0999 V2000
    0.7145    2.0625    0.0000 Br  0  0  0  0  0  0  0  0  0  0  0  0
    0.7145    1.2375    0.0000 C   0  0  0  0  0  0  0  0  0  0  0  0
    1.4289    0.8250    0.0000 C   0  0  0  0  0  0  0  0  0  0  0  0
    1.4289    0.0000    0.0000 C   0  0  0  0  0  0  0  0  0  0  0  0
    0.7145   -0.4125    0.0000 C   0  0  0  0  0  0  0  0  0  0  0  0
    0.7145   -1.2375    0.0000 C   0  0  0  0  0  0  0  0  0  0  0  0
    1.4289   -1.6500    0.0000 C   0  0  0  0  0  0  0  0  0  0  0  0
    1.4289   -2.4750    0.0000 N   0  0  0  0  0  0  0  0  0  0  0  0
    2.1434   -1.2375    0.0000 C   0  0  0  0  0  0  0  0  0  0  0  0
    2.1434   -0.4125    0.0000 O   0  0  0  0  0  0  0  0  0  0  0  0
    0.0000    0.0000    0.0000 C   0  0  0  0  0  0  0  0  0  0  0  0
    0.0000    0.8250    0.0000 C   0  0  0  0  0  0  0  0  0  0  0  0
    2.1434   -2.8875    0.0000 R#  0  0  0  0  0  0  0  0  0  0  0  0
    2.8579   -1.6500    0.0000 R#  0  0  0  0  0  0  0  0  0  0  0  0
  1  2  1  0
  2  3  2  0
  3  4  1  0
  4  5  2  0
  5  6  1  0
  7  6  1  1
  7  8  1  0
  8 13  1  0
  7  9  1  0
  9 14  1  0
  9 10  2  0
  5 11  1  0
 11 12  2  0
  2 12  1  0
M  RGP  2  13   1  14   2
V   13 *
V   14 *
M  END
>  <m_name>  (207) 
(2S)-2-amino-3-(4-bromophenyl)propanoic acid

>  <symbol>  (207) 
Phe_4Br

>  <m_abbr>  (207) 
Phe_4Br

>  <m_type>  (207) 
aa

>  <m_subtype>  (207) 
non-natural

>  <m_Rgroups>  (207) 
H,OH,None,None

>  <m_RgroupIdx>  (207) 
12,13,None,None

>  <m_attachmentPointIdx>  (207) 
7,8,None,None

>  <natAnalog>  (207) 
F

>  <pdbName>  (207) 
PJ0

$$$$

     RDKit          2D

 14 14  0  0  0  0  0  0  0  0999 V2000
    0.7145    2.0625    0.0000 I   0  0  0  0  0  0  0  0  0  0  0  0
    0.7145    1.2375    0.0000 C   0  0  0  0  0  0  0  0  0  0  0  0
    1.4289    0.8250    0.0000 C   0  0  0  0  0  0  0  0  0  0  0  0
    1.4289    0.0000    0.0000 C   0  0  0  0  0  0  0  0  0  0  0  0
    0.7145   -0.4125    0.0000 C   0  0  0  0  0  0  0  0  0  0  0  0
    0.7145   -1.2375    0.0000 C   0  0  0  0  0  0  0  0  0  0  0  0
    1.4289   -1.6500    0.0000 C   0  0  0  0  0  0  0  0  0  0  0  0
    1.4289   -2.4750    0.0000 N   0  0  0  0  0  0  0  0  0  0  0  0
    2.1434   -1.2375    0.0000 C   0  0  0  0  0  0  0  0  0  0  0  0
    2.1434   -0.4125    0.0000 O   0  0  0  0  0  0  0  0  0  0  0  0
    0.0000    0.0000    0.0000 C   0  0  0  0  0  0  0  0  0  0  0  0
    0.0000    0.8250    0.0000 C   0  0  0  0  0  0  0  0  0  0  0  0
    2.1434   -2.8875    0.0000 R#  0  0  0  0  0  0  0  0  0  0  0  0
    2.8579   -1.6500    0.0000 R#  0  0  0  0  0  0  0  0  0  0  0  0
  1  2  1  0
  2  3  2  0
  3  4  1  0
  4  5  2  0
  5  6  1  0
  7  6  1  1
  7  8  1  0
  8 13  1  0
  7  9  1  0
  9 14  1  0
  9 10  2  0
  5 11  1  0
 11 12  2  0
  2 12  1  0
M  RGP  2  13   1  14   2
V   13 *
V   14 *
M  END
>  <m_name>  (208) 
(2S)-2-amino-3-(4-iodophenyl)propanoic acid

>  <symbol>  (208) 
Phe_4I

>  <m_abbr>  (208) 
Phe_4I

>  <m_type>  (208) 
aa

>  <m_subtype>  (208) 
non-natural

>  <m_Rgroups>  (208) 
H,OH,None,None

>  <m_RgroupIdx>  (208) 
12,13,None,None

>  <m_attachmentPointIdx>  (208) 
7,8,None,None

>  <natAnalog>  (208) 
F

>  <pdbName>  (208) 
PJ3

$$$$

     RDKit          2D

 24 25  0  0  0  0  0  0  0  0999 V2000
    0.7145   -0.4125    0.0000 N   0  0  0  0  0  0  0  0  0  0  0  0
    0.7145   -1.2375    0.0000 C   0  0  0  0  0  0  0  0  0  0  0  0
    1.4289   -1.6500    0.0000 C   0  0  0  0  0  0  0  0  0  0  0  0
    1.4289   -2.4750    0.0000 C   0  0  0  0  0  0  0  0  0  0  0  0
    2.1434   -2.8875    0.0000 C   0  0  0  0  0  0  0  0  0  0  0  0
    2.1434   -3.7125    0.0000 C   0  0  0  0  0  0  0  0  0  0  0  0
    1.4289   -4.1250    0.0000 C   0  0  0  0  0  0  0  0  0  0  0  0
    1.4289   -4.9500    0.0000 N   0  0  0  0  0  0  0  0  0  0  0  0
    2.1434   -5.3625    0.0000 C   0  0  0  0  0  0  0  0  0  0  0  0
    2.8579   -4.9500    0.0000 O   0  0  0  0  0  0  0  0  0  0  0  0
    2.1434   -6.1875    0.0000 C   0  0  0  0  0  0  0  0  0  0  0  0
    2.8579   -6.6000    0.0000 C   0  0  0  0  0  0  0  0  0  0  0  0
    2.8579   -7.4250    0.0000 C   0  0  0  0  0  0  0  0  0  0  0  0
    3.5724   -7.8375    0.0000 O   0  0  0  0  0  0  0  0  0  0  0  0
    2.1434   -7.8375    0.0000 N   0  0  0  0  0  0  0  0  0  0  0  0
    1.4289   -7.4250    0.0000 C   0  0  0  0  0  0  0  0  0  0  0  0
    0.7145   -7.8375    0.0000 O   0  0  0  0  0  0  0  0  0  0  0  0
    1.4289   -6.6000    0.0000 N   0  0  0  0  0  0  0  0  0  0  0  0
    0.7145   -3.7125    0.0000 C   0  0  0  0  0  0  0  0  0  0  0  0
    0.7145   -2.8875    0.0000 C   0  0  0  0  0  0  0  0  0  0  0  0
    0.0000   -1.6500    0.0000 C   0  0  0  0  0  0  0  0  0  0  0  0
   -0.7145   -1.2375    0.0000 O   0  0  0  0  0  0  0  0  0  0  0  0
    0.0000    0.0000    0.0000 R#  0  0  0  0  0  0  0  0  0  0  0  0
    0.0000   -2.4750    0.0000 R#  0  0  0  0  0  0  0  0  0  0  0  0
 23  1  1  0
  2  1  1  0
  2  3  1  1
  3  4  1  0
  4  5  2  0
  5  6  1  0
  6  7  2  0
  7  8  1  0
  8  9  1  0
  9 10  2  0
 11  9  1  6
 11 12  1  0
 12 13  1  0
 13 14  2  0
 13 15  1  0
 15 16  1  0
 16 17  2  0
 16 18  1  0
 11 18  1  0
  7 19  1  0
 19 20  2  0
  4 20  1  0
  2 21  1  0
 21 24  1  0
 21 22  2  0
M  RGP  2  23   1  24   2
V   23 *
V   24 *
M  END
>  <m_name>  (209) 
(2S)-2-amino-3-{4-[(4S)-2,6-dioxo-1,3-diazinane-4-amido]phenyl}propanoic acid

>  <symbol>  (209) 
Phe_4Sdihydroorotamido

>  <m_abbr>  (209) 
Phe_4Sdihydroorotamido

>  <m_type>  (209) 
aa

>  <m_subtype>  (209) 
non-natural

>  <m_Rgroups>  (209) 
H,OH,None,None

>  <m_RgroupIdx>  (209) 
22,23,None,None

>  <m_attachmentPointIdx>  (209) 
0,20,None,None

>  <natAnalog>  (209) 
F

>  <pdbName>  (209) 
PJ6

$$$$

     RDKit          2D

 19 19  0  0  0  0  0  0  0  0999 V2000
    1.2054   -1.3036    0.0000 C   0  0  0  0  0  0  0  0  0  0  0  0
    0.8068   -0.5813    0.0000 C   0  0  0  0  0  0  0  0  0  0  0  0
   -0.0119   -0.4792    0.0000 C   0  0  0  0  0  0  0  0  0  0  0  0
   -0.1678    0.3309    0.0000 C   0  0  0  0  0  0  0  0  0  0  0  0
    0.5545    0.7295    0.0000 N   0  0  0  0  0  0  0  0  0  0  0  0
    1.1568    0.1658    0.0000 C   0  0  0  0  0  0  0  0  0  0  0  0
    1.9670    0.3217    0.0000 C   0  0  0  0  0  0  0  0  0  0  0  0
    2.2370    1.1012    0.0000 O   0  0  0  0  0  0  0  0  0  0  0  0
    2.5070   -0.3020    0.0000 N   0  0  0  0  0  0  0  0  0  0  0  0
    3.3172   -0.1461    0.0000 C   0  0  0  0  0  0  0  0  0  0  0  0
    3.8573   -0.7697    0.0000 C   0  0  0  0  0  0  0  0  0  0  0  0
    4.6674   -0.6138    0.0000 C   0  0  0  0  0  0  0  0  0  0  0  0
    5.2075   -1.2374    0.0000 C   0  0  0  0  0  0  0  0  0  0  0  0
    6.0176   -1.0815    0.0000 C   0  0  0  0  0  0  0  0  0  0  0  0
    6.5577   -1.7052    0.0000 N   0  0  0  0  0  0  0  0  0  0  0  0
    6.2877   -0.3020    0.0000 C   0  0  0  0  0  0  0  0  0  0  0  0
    7.0978   -0.1461    0.0000 O   0  0  0  0  0  0  0  0  0  0  0  0
    7.3678   -1.5493    0.0000 R#  0  0  0  0  0  0  0  0  0  0  0  0
    5.7476    0.3217    0.0000 R#  0  0  0  0  0  0  0  0  0  0  0  0
  2  1  1  6
  2  3  1  0
  3  4  1  0
  4  5  2  0
  6  5  1  0
  2  6  1  0
  6  7  1  1
  7  8  2  0
  7  9  1  0
  9 10  1  0
 10 11  1  0
 11 12  1  0
 12 13  1  0
 14 13  1  1
 14 15  1  0
 15 18  1  0
 14 16  1  0
 16 19  1  0
 16 17  2  0
M  RGP  2  18   1  19   2
V   18 *
V   19 *
M  END
>  <m_name>  (210) 
Pyrrolysine

>  <symbol>  (210) 
Pyl

>  <m_abbr>  (210) 
Pyl

>  <m_type>  (210) 
aa

>  <m_subtype>  (210) 
non-natural

>  <m_Rgroups>  (210) 
H,OH,None,None

>  <m_RgroupIdx>  (210) 
17,18,None,None

>  <m_attachmentPointIdx>  (210) 
14,15,None,None

>  <natAnalog>  (210) 
X

>  <pdbName>  (210) 
PJ9

$$$$

     RDKit          2D

 12 11  0  0  0  0  0  0  0  0999 V2000
   -0.8250   -2.8579    0.0000 O   0  0  0  0  0  0  0  0  0  0  0  0
   -0.4125   -2.1434    0.0000 P   0  0  0  0  0  0  0  0  0  0  0  0
    0.3020   -2.5559    0.0000 O   0  0  0  0  0  0  0  0  0  0  0  0
   -1.1270   -1.7309    0.0000 O   0  0  0  0  0  0  0  0  0  0  0  0
    0.0000   -1.4289    0.0000 O   0  0  0  0  0  0  0  0  0  0  0  0
    0.8250   -1.4289    0.0000 C   0  0  0  0  0  0  0  0  0  0  0  0
    1.2375   -0.7145    0.0000 C   0  0  0  0  0  0  0  0  0  0  0  0
    2.0625   -0.7145    0.0000 N   0  0  0  0  0  0  0  0  0  0  0  0
    0.8250    0.0000    0.0000 C   0  0  0  0  0  0  0  0  0  0  0  0
    0.0000    0.0000    0.0000 O   0  0  0  0  0  0  0  0  0  0  0  0
    2.4750    0.0000    0.0000 R#  0  0  0  0  0  0  0  0  0  0  0  0
    1.2375    0.7145    0.0000 R#  0  0  0  0  0  0  0  0  0  0  0  0
  1  2  1  0
  2  3  1  0
  2  4  2  0
  2  5  1  0
  5  6  1  0
  7  6  1  1
  7  8  1  0
  8 11  1  0
  7  9  1  0
  9 12  1  0
  9 10  2  0
M  RGP  2  11   1  12   2
V   11 *
V   12 *
M  END
>  <m_name>  (211) 
(2S)-2-amino-3-(phosphonooxy)propanoic acid

>  <symbol>  (211) 
Ser_PO3H2

>  <m_abbr>  (211) 
Ser_PO3H2

>  <m_type>  (211) 
aa

>  <m_subtype>  (211) 
non-natural

>  <m_Rgroups>  (211) 
H,OH,None,None

>  <m_RgroupIdx>  (211) 
10,11,None,None

>  <m_attachmentPointIdx>  (211) 
7,8,None,None

>  <natAnalog>  (211) 
S

>  <pdbName>  (211) 
SEW

$$$$

     RDKit          2D

 13 12  0  0  0  0  0  0  0  0999 V2000
    1.2375   -2.1434    0.0000 C   0  0  0  0  0  0  0  0  0  0  0  0
    0.8250   -1.4289    0.0000 C   0  0  0  0  0  0  0  0  0  0  0  0
    0.0000   -1.4289    0.0000 O   0  0  0  0  0  0  0  0  0  0  0  0
   -0.4125   -2.1434    0.0000 P   0  0  0  0  0  0  0  0  0  0  0  0
   -0.8250   -2.8579    0.0000 O   0  0  0  0  0  0  0  0  0  0  0  0
    0.3020   -2.5559    0.0000 O   0  0  0  0  0  0  0  0  0  0  0  0
   -1.1270   -1.7309    0.0000 O   0  0  0  0  0  0  0  0  0  0  0  0
    1.2375   -0.7145    0.0000 C   0  0  0  0  0  0  0  0  0  0  0  0
    2.0625   -0.7145    0.0000 N   0  0  0  0  0  0  0  0  0  0  0  0
    0.8250    0.0000    0.0000 C   0  0  0  0  0  0  0  0  0  0  0  0
    0.0000    0.0000    0.0000 O   0  0  0  0  0  0  0  0  0  0  0  0
    2.4750    0.0000    0.0000 R#  0  0  0  0  0  0  0  0  0  0  0  0
    1.2375    0.7145    0.0000 R#  0  0  0  0  0  0  0  0  0  0  0  0
  2  1  1  1
  2  3  1  0
  3  4  1  0
  4  5  1  0
  4  6  1  0
  4  7  2  0
  2  8  1  0
  8  9  1  1
  9 12  1  0
  8 10  1  0
 10 13  1  0
 10 11  2  0
M  RGP  2  12   1  13   2
V   12 *
V   13 *
M  END
>  <m_name>  (212) 
(2S,3R)-2-amino-3-(phosphonooxy)butanoic acid

>  <symbol>  (212) 
Thr_PO3H2

>  <m_abbr>  (212) 
Thr_PO3H2

>  <m_type>  (212) 
aa

>  <m_subtype>  (212) 
non-natural

>  <m_Rgroups>  (212) 
H,OH,None,None

>  <m_RgroupIdx>  (212) 
11,12,None,None

>  <m_attachmentPointIdx>  (212) 
8,9,None,None

>  <natAnalog>  (212) 
T

>  <pdbName>  (212) 
TBW

$$$$

     RDKit          2D

  9  9  0  0  0  0  0  0  0  0999 V2000
    0.5678    1.1143    0.0000 N   0  0  0  0  0  0  0  0  0  0  0  0
    1.2352    0.6294    0.0000 C   0  0  0  0  0  0  0  0  0  0  0  0
    0.9803   -0.1553    0.0000 S   0  0  0  0  0  0  0  0  0  0  0  0
    0.1553   -0.1553    0.0000 C   0  0  0  0  0  0  0  0  0  0  0  0
   -0.0997    0.6294    0.0000 C   0  0  0  0  0  0  0  0  0  0  0  0
   -0.8843    0.8843    0.0000 C   0  0  0  0  0  0  0  0  0  0  0  0
   -1.0558    1.6913    0.0000 O   0  0  0  0  0  0  0  0  0  0  0  0
    0.5678    1.9393    0.0000 R#  0  0  0  0  0  0  0  0  0  0  0  0
   -1.4974    0.3323    0.0000 R#  0  0  0  0  0  0  0  0  0  0  0  0
  8  1  1  0
  1  2  1  0
  2  3  1  0
  3  4  1  0
  5  4  1  0
  5  1  1  0
  5  6  1  1
  6  9  1  0
  6  7  2  0
M  RGP  2   8   1   9   2
V    8 *
V    9 *
M  END
>  <m_name>  (213) 
(4R)-1,3-thiazolidine-4-carboxylic acid

>  <symbol>  (213) 
Thz

>  <m_abbr>  (213) 
Thz

>  <m_type>  (213) 
aa

>  <m_subtype>  (213) 
non-natural

>  <m_Rgroups>  (213) 
H,OH,None,None

>  <m_RgroupIdx>  (213) 
7,8,None,None

>  <m_attachmentPointIdx>  (213) 
0,5,None,None

>  <natAnalog>  (213) 
X

>  <pdbName>  (213) 
TB3

$$$$

     RDKit          2D

 17 18  0  0  0  0  0  0  0  0999 V2000
    0.8838   -2.1500    0.0000 C   0  0  0  0  0  0  0  0  0  0  0  0
    1.1387   -1.3654    0.0000 N   0  0  0  0  0  0  0  0  0  0  0  0
    0.6538   -0.6979    0.0000 C   0  0  0  0  0  0  0  0  0  0  0  0
    1.1387   -0.0305    0.0000 C   0  0  0  0  0  0  0  0  0  0  0  0
    0.8838    0.7541    0.0000 C   0  0  0  0  0  0  0  0  0  0  0  0
    0.0768    0.9256    0.0000 C   0  0  0  0  0  0  0  0  0  0  0  0
   -0.1781    1.7103    0.0000 N   0  0  0  0  0  0  0  0  0  0  0  0
   -0.4752    0.3126    0.0000 C   0  0  0  0  0  0  0  0  0  0  0  0
   -0.2203   -0.4721    0.0000 O   0  0  0  0  0  0  0  0  0  0  0  0
    1.9233   -0.2854    0.0000 C   0  0  0  0  0  0  0  0  0  0  0  0
    2.6378    0.1271    0.0000 C   0  0  0  0  0  0  0  0  0  0  0  0
    3.3523   -0.2854    0.0000 C   0  0  0  0  0  0  0  0  0  0  0  0
    3.3523   -1.1104    0.0000 C   0  0  0  0  0  0  0  0  0  0  0  0
    2.6378   -1.5229    0.0000 C   0  0  0  0  0  0  0  0  0  0  0  0
    1.9233   -1.1104    0.0000 C   0  0  0  0  0  0  0  0  0  0  0  0
   -0.9851    1.8818    0.0000 R#  0  0  0  0  0  0  0  0  0  0  0  0
   -1.2822    0.4841    0.0000 R#  0  0  0  0  0  0  0  0  0  0  0  0
  1  2  1  0
  2  3  1  0
  3  4  2  0
  4  5  1  0
  6  5  1  1
  6  7  1  0
  7 16  1  0
  6  8  1  0
  8 17  1  0
  8  9  2  0
  4 10  1  0
 10 11  2  0
 11 12  1  0
 12 13  2  0
 13 14  1  0
 14 15  2  0
  2 15  1  0
 10 15  1  0
M  RGP  2  16   1  17   2
V   16 *
V   17 *
M  END
>  <m_name>  (214) 
(2S)-2-amino-3-(1-methyl-1H-indol-3-yl)propanoic acid

>  <symbol>  (214) 
Trp_Me

>  <m_abbr>  (214) 
Trp_Me

>  <m_type>  (214) 
aa

>  <m_subtype>  (214) 
non-natural

>  <m_Rgroups>  (214) 
H,OH,None,None

>  <m_RgroupIdx>  (214) 
15,16,None,None

>  <m_attachmentPointIdx>  (214) 
6,7,None,None

>  <natAnalog>  (214) 
W

>  <pdbName>  (214) 
TB4

$$$$

     RDKit          2D

 16 16  0  0  0  0  0  0  0  0999 V2000
    0.7145    2.0625    0.0000 C   0  0  0  0  0  0  0  0  0  0  0  0
    0.7145    1.2375    0.0000 C   0  0  0  0  0  0  0  0  0  0  0  0
    1.4289    0.8250    0.0000 C   0  0  0  0  0  0  0  0  0  0  0  0
    1.4289    0.0000    0.0000 C   0  0  0  0  0  0  0  0  0  0  0  0
    2.1434   -0.4125    0.0000 O   0  0  0  0  0  0  0  0  0  0  0  0
    0.7145   -0.4125    0.0000 C   0  0  0  0  0  0  0  0  0  0  0  0
    0.0000    0.0000    0.0000 C   0  0  0  0  0  0  0  0  0  0  0  0
   -0.7145   -0.4125    0.0000 C   0  0  0  0  0  0  0  0  0  0  0  0
    0.0000    0.8250    0.0000 C   0  0  0  0  0  0  0  0  0  0  0  0
   -0.7145    1.2375    0.0000 C   0  0  0  0  0  0  0  0  0  0  0  0
   -1.4289    0.8250    0.0000 C   0  0  0  0  0  0  0  0  0  0  0  0
   -1.4289    0.0000    0.0000 N   0  0  0  0  0  0  0  0  0  0  0  0
   -2.1434    1.2375    0.0000 C   0  0  0  0  0  0  0  0  0  0  0  0
   -2.1434    2.0625    0.0000 O   0  0  0  0  0  0  0  0  0  0  0  0
   -2.1434   -0.4125    0.0000 R#  0  0  0  0  0  0  0  0  0  0  0  0
   -2.8579    0.8250    0.0000 R#  0  0  0  0  0  0  0  0  0  0  0  0
  1  2  1  0
  2  3  2  0
  3  4  1  0
  4  5  1  0
  4  6  2  0
  6  7  1  0
  7  8  1  0
  7  9  2  0
  2  9  1  0
  9 10  1  0
 11 10  1  6
 11 12  1  0
 12 15  1  0
 11 13  1  0
 13 16  1  0
 13 14  2  0
M  RGP  2  15   1  16   2
V   15 *
V   16 *
M  END
>  <m_name>  (215) 
(2S)-2-amino-3-(4-hydroxy-2,6-dimethylphenyl)propanoic acid

>  <symbol>  (215) 
Tyr_26diMe

>  <m_abbr>  (215) 
Tyr_26diMe

>  <m_type>  (215) 
aa

>  <m_subtype>  (215) 
non-natural

>  <m_Rgroups>  (215) 
H,OH,None,None

>  <m_RgroupIdx>  (215) 
14,15,None,None

>  <m_attachmentPointIdx>  (215) 
11,12,None,None

>  <natAnalog>  (215) 
Y

>  <pdbName>  (215) 
TY7

$$$$

     RDKit          2D

 15 15  0  0  0  0  0  0  0  0999 V2000
    0.7145    2.0625    0.0000 O   0  0  0  0  0  0  0  0  0  0  0  0
    0.7145    1.2375    0.0000 C   0  0  0  0  0  0  0  0  0  0  0  0
    1.4289    0.8250    0.0000 C   0  0  0  0  0  0  0  0  0  0  0  0
    1.4289    0.0000    0.0000 C   0  0  0  0  0  0  0  0  0  0  0  0
    0.7145   -0.4125    0.0000 C   0  0  0  0  0  0  0  0  0  0  0  0
    0.7145   -1.2375    0.0000 C   0  0  0  0  0  0  0  0  0  0  0  0
    1.4289   -1.6500    0.0000 C   0  0  0  0  0  0  0  0  0  0  0  0
    1.4289   -2.4750    0.0000 N   0  0  0  0  0  0  0  0  0  0  0  0
    2.1434   -1.2375    0.0000 C   0  0  0  0  0  0  0  0  0  0  0  0
    2.1434   -0.4125    0.0000 O   0  0  0  0  0  0  0  0  0  0  0  0
    0.0000    0.0000    0.0000 C   0  0  0  0  0  0  0  0  0  0  0  0
    0.0000    0.8250    0.0000 C   0  0  0  0  0  0  0  0  0  0  0  0
   -0.7145    1.2375    0.0000 I   0  0  0  0  0  0  0  0  0  0  0  0
    2.1434   -2.8875    0.0000 R#  0  0  0  0  0  0  0  0  0  0  0  0
    2.8579   -1.6500    0.0000 R#  0  0  0  0  0  0  0  0  0  0  0  0
  1  2  1  0
  2  3  2  0
  3  4  1  0
  4  5  2  0
  5  6  1  0
  7  6  1  1
  7  8  1  0
  8 14  1  0
  7  9  1  0
  9 15  1  0
  9 10  2  0
  5 11  1  0
 11 12  2  0
  2 12  1  0
 12 13  1  0
M  RGP  2  14   1  15   2
V   14 *
V   15 *
M  END
>  <m_name>  (216) 
(2S)-2-amino-3-(4-hydroxy-3-iodophenyl)propanoic acid

>  <symbol>  (216) 
Tyr_3I

>  <m_abbr>  (216) 
Tyr_3I

>  <m_type>  (216) 
aa

>  <m_subtype>  (216) 
non-natural

>  <m_Rgroups>  (216) 
H,OH,None,None

>  <m_RgroupIdx>  (216) 
13,14,None,None

>  <m_attachmentPointIdx>  (216) 
7,8,None,None

>  <natAnalog>  (216) 
Y

>  <pdbName>  (216) 
TCS

$$$$

     RDKit          2D

 17 17  0  0  0  0  0  0  0  0999 V2000
   -0.7145    1.2375    0.0000 N   0  0  0  0  0  0  0  0  0  0  0  0
   -0.7145    2.0625    0.0000 O   0  0  0  0  0  0  0  0  0  0  0  0
   -1.4289    0.8250    0.0000 O   0  0  0  0  0  0  0  0  0  0  0  0
    0.0000    0.8250    0.0000 C   0  0  0  0  0  0  0  0  0  0  0  0
    0.0000    0.0000    0.0000 C   0  0  0  0  0  0  0  0  0  0  0  0
    0.7145    1.2375    0.0000 C   0  0  0  0  0  0  0  0  0  0  0  0
    0.7145   -0.4125    0.0000 C   0  0  0  0  0  0  0  0  0  0  0  0
    0.7145    2.0625    0.0000 O   0  0  0  0  0  0  0  0  0  0  0  0
    1.4289    0.8250    0.0000 C   0  0  0  0  0  0  0  0  0  0  0  0
    1.4289    0.0000    0.0000 C   0  0  0  0  0  0  0  0  0  0  0  0
    0.7145   -1.2375    0.0000 C   0  0  0  0  0  0  0  0  0  0  0  0
    1.4289   -1.6500    0.0000 C   0  0  0  0  0  0  0  0  0  0  0  0
    1.4289   -2.4750    0.0000 N   0  0  0  0  0  0  0  0  0  0  0  0
    2.1434   -1.2375    0.0000 C   0  0  0  0  0  0  0  0  0  0  0  0
    2.1434   -0.4125    0.0000 O   0  0  0  0  0  0  0  0  0  0  0  0
    2.1434   -2.8875    0.0000 R#  0  0  0  0  0  0  0  0  0  0  0  0
    2.8579   -1.6500    0.0000 R#  0  0  0  0  0  0  0  0  0  0  0  0
  2  1  1  0
  1  3  2  0
  4  1  1  0
  5  4  2  0
  6  4  1  0
  7  5  1  0
  8  6  1  0
  6  9  2  0
 10  7  2  0
  7 11  1  0
  9 10  1  0
 12 11  1  1
 12 13  1  0
 12 14  1  0
 13 16  1  0
 14 17  1  0
 14 15  2  0
M  CHG  2   1   1   2  -1
M  RGP  2  16   1  17   2
V   16 *
V   17 *
M  END
>  <m_name>  (217) 
(2S)-2-amino-3-(4-hydroxy-3-nitrophenyl)propanoic acid

>  <symbol>  (217) 
Tyr_3NO2

>  <m_abbr>  (217) 
Tyr_3NO2

>  <m_type>  (217) 
aa

>  <m_subtype>  (217) 
non-natural

>  <m_Rgroups>  (217) 
H,OH,None,None

>  <m_RgroupIdx>  (217) 
15,16,None,None

>  <m_attachmentPointIdx>  (217) 
12,13,None,None

>  <natAnalog>  (217) 
Y

>  <pdbName>  (217) 
TDQ

$$$$

     RDKit          2D

 21 22  0  0  0  0  0  0  0  0999 V2000
    2.1434   -0.4125    0.0000 O   0  0  0  0  0  0  0  0  0  0  0  0
    2.1434   -1.2375    0.0000 C   0  0  0  0  0  0  0  0  0  0  0  0
    2.8579   -1.6500    0.0000 C   0  0  0  0  0  0  0  0  0  0  0  0
    2.8579   -2.4750    0.0000 C   0  0  0  0  0  0  0  0  0  0  0  0
    2.1434   -2.8875    0.0000 C   0  0  0  0  0  0  0  0  0  0  0  0
    2.1434   -3.7125    0.0000 O   0  0  0  0  0  0  0  0  0  0  0  0
    1.4289   -4.1250    0.0000 C   0  0  0  0  0  0  0  0  0  0  0  0
    1.4289   -4.9500    0.0000 C   0  0  0  0  0  0  0  0  0  0  0  0
    0.7145   -5.3625    0.0000 C   0  0  0  0  0  0  0  0  0  0  0  0
    0.0000   -4.9500    0.0000 C   0  0  0  0  0  0  0  0  0  0  0  0
   -0.7145   -5.3625    0.0000 C   0  0  0  0  0  0  0  0  0  0  0  0
   -0.7145   -6.1875    0.0000 C   0  0  0  0  0  0  0  0  0  0  0  0
   -1.4289   -6.6000    0.0000 N   0  0  0  0  0  0  0  0  0  0  0  0
    0.0000   -6.6000    0.0000 C   0  0  0  0  0  0  0  0  0  0  0  0
    0.7145   -6.1875    0.0000 O   0  0  0  0  0  0  0  0  0  0  0  0
    0.0000   -4.1250    0.0000 C   0  0  0  0  0  0  0  0  0  0  0  0
    0.7145   -3.7125    0.0000 C   0  0  0  0  0  0  0  0  0  0  0  0
    1.4289   -2.4750    0.0000 C   0  0  0  0  0  0  0  0  0  0  0  0
    1.4289   -1.6500    0.0000 C   0  0  0  0  0  0  0  0  0  0  0  0
   -1.4289   -7.4250    0.0000 R#  0  0  0  0  0  0  0  0  0  0  0  0
    0.0000   -7.4250    0.0000 R#  0  0  0  0  0  0  0  0  0  0  0  0
  1  2  1  0
  2  3  2  0
  3  4  1  0
  4  5  2  0
  5  6  1  0
  6  7  1  0
  7  8  2  0
  8  9  1  0
  9 10  2  0
 10 11  1  0
 12 11  1  1
 12 13  1  0
 13 20  1  0
 12 14  1  0
 14 21  1  0
 14 15  2  0
 10 16  1  0
 16 17  2  0
  7 17  1  0
  5 18  1  0
 18 19  2  0
  2 19  1  0
M  RGP  2  20   1  21   2
V   20 *
V   21 *
M  END
>  <m_name>  (218) 
(2S)-2-amino-3-[4-(4-hydroxyphenoxy)phenyl]propanoic acid

>  <symbol>  (218) 
Tyr_Ph4OH

>  <m_abbr>  (218) 
Tyr_Ph4OH

>  <m_type>  (218) 
aa

>  <m_subtype>  (218) 
non-natural

>  <m_Rgroups>  (218) 
H,OH,None,None

>  <m_RgroupIdx>  (218) 
19,20,None,None

>  <m_attachmentPointIdx>  (218) 
12,13,None,None

>  <natAnalog>  (218) 
Y

>  <pdbName>  (218) 
TD0

$$$$

     RDKit          2D

 18 18  0  0  0  0  0  0  0  0999 V2000
   -0.7145    2.8875    0.0000 O   0  0  0  0  0  0  0  0  0  0  0  0
    0.0000    2.4750    0.0000 S   0  0  0  0  0  0  0  0  0  0  0  0
   -0.4125    1.7605    0.0000 O   0  0  0  0  0  0  0  0  0  0  0  0
    0.4125    3.1895    0.0000 O   0  0  0  0  0  0  0  0  0  0  0  0
    0.7145    2.0625    0.0000 O   0  0  0  0  0  0  0  0  0  0  0  0
    0.7145    1.2375    0.0000 C   0  0  0  0  0  0  0  0  0  0  0  0
    1.4289    0.8250    0.0000 C   0  0  0  0  0  0  0  0  0  0  0  0
    1.4289    0.0000    0.0000 C   0  0  0  0  0  0  0  0  0  0  0  0
    0.7145   -0.4125    0.0000 C   0  0  0  0  0  0  0  0  0  0  0  0
    0.7145   -1.2375    0.0000 C   0  0  0  0  0  0  0  0  0  0  0  0
    1.4289   -1.6500    0.0000 C   0  0  0  0  0  0  0  0  0  0  0  0
    1.4289   -2.4750    0.0000 N   0  0  0  0  0  0  0  0  0  0  0  0
    2.1434   -1.2375    0.0000 C   0  0  0  0  0  0  0  0  0  0  0  0
    2.1434   -0.4125    0.0000 O   0  0  0  0  0  0  0  0  0  0  0  0
    0.0000    0.0000    0.0000 C   0  0  0  0  0  0  0  0  0  0  0  0
    0.0000    0.8250    0.0000 C   0  0  0  0  0  0  0  0  0  0  0  0
    2.1434   -2.8875    0.0000 R#  0  0  0  0  0  0  0  0  0  0  0  0
    2.8579   -1.6500    0.0000 R#  0  0  0  0  0  0  0  0  0  0  0  0
  1  2  1  0
  2  3  2  0
  2  4  2  0
  2  5  1  0
  5  6  1  0
  6  7  2  0
  7  8  1  0
  8  9  2  0
  9 10  1  0
 11 10  1  1
 11 12  1  0
 12 17  1  0
 11 13  1  0
 13 18  1  0
 13 14  2  0
  9 15  1  0
 15 16  2  0
  6 16  1  0
M  RGP  2  17   1  18   2
V   17 *
V   18 *
M  END
>  <m_name>  (219) 
(2S)-2-amino-3-[4-(sulfooxy)phenyl]propanoic acid

>  <symbol>  (219) 
Tyr_SO3H

>  <m_abbr>  (219) 
Tyr_SO3H

>  <m_type>  (219) 
aa

>  <m_subtype>  (219) 
non-natural

>  <m_Rgroups>  (219) 
H,OH,None,None

>  <m_RgroupIdx>  (219) 
16,17,None,None

>  <m_attachmentPointIdx>  (219) 
11,12,None,None

>  <natAnalog>  (219) 
Y

>  <pdbName>  (219) 
TEW

$$$$

     RDKit          2D

 10  9  0  0  0  0  0  0  0  0999 V2000
    0.4125   -2.1434    0.0000 C   0  0  0  0  0  0  0  0  0  0  0  0
    0.8250   -1.4289    0.0000 C   0  0  0  0  0  0  0  0  0  0  0  0
    1.5395   -1.8414    0.0000 C   0  0  0  0  0  0  0  0  0  0  0  0
    0.1105   -1.0164    0.0000 O   0  0  0  0  0  0  0  0  0  0  0  0
    1.2375   -0.7145    0.0000 C   0  0  0  0  0  0  0  0  0  0  0  0
    2.0625   -0.7145    0.0000 N   0  0  0  0  0  0  0  0  0  0  0  0
    0.8250    0.0000    0.0000 C   0  0  0  0  0  0  0  0  0  0  0  0
    0.0000    0.0000    0.0000 O   0  0  0  0  0  0  0  0  0  0  0  0
    2.4750    0.0000    0.0000 R#  0  0  0  0  0  0  0  0  0  0  0  0
    1.2375    0.7145    0.0000 R#  0  0  0  0  0  0  0  0  0  0  0  0
  1  2  1  0
  2  3  1  0
  2  4  1  0
  5  2  1  0
  5  6  1  1
  6  9  1  0
  5  7  1  0
  7 10  1  0
  7  8  2  0
M  RGP  2   9   1  10   2
V    9 *
V   10 *
M  END
>  <m_name>  (220) 
(2S)-2-amino-3-hydroxy-3-methylbutanoic acid

>  <symbol>  (220) 
Val_3OH

>  <m_abbr>  (220) 
Val_3OH

>  <m_type>  (220) 
aa

>  <m_subtype>  (220) 
non-natural

>  <m_Rgroups>  (220) 
H,OH,None,None

>  <m_RgroupIdx>  (220) 
8,9,None,None

>  <m_attachmentPointIdx>  (220) 
5,6,None,None

>  <natAnalog>  (220) 
V

>  <pdbName>  (220) 
VAM

$$$$

     RDKit          2D

 10  9  0  0  0  0  0  0  0  0999 V2000
    0.5230    0.5230    0.0000 C   0  0  0  0  0  0  0  0  0  0  0  0
    1.2375    0.1105    0.0000 C   0  0  0  0  0  0  0  0  0  0  0  0
    1.2375   -0.7145    0.0000 C   0  0  0  0  0  0  0  0  0  0  0  0
    0.5230   -1.1270    0.0000 C   0  0  0  0  0  0  0  0  0  0  0  0
    1.9520   -1.1270    0.0000 C   0  0  0  0  0  0  0  0  0  0  0  0
    1.9520   -1.9520    0.0000 N   0  0  0  0  0  0  0  0  0  0  0  0
    2.6664   -0.7145    0.0000 C   0  0  0  0  0  0  0  0  0  0  0  0
    3.3809   -1.1270    0.0000 O   0  0  0  0  0  0  0  0  0  0  0  0
    2.6664   -2.3645    0.0000 R#  0  0  0  0  0  0  0  0  0  0  0  0
    2.6664    0.1105    0.0000 R#  0  0  0  0  0  0  0  0  0  0  0  0
  1  2  1  0
  2  3  1  0
  3  4  1  0
  5  3  1  0
  5  6  1  1
  6  9  1  0
  5  7  1  0
  7 10  1  0
  7  8  2  0
M  RGP  2   9   1  10   2
V    9 *
V   10 *
M  END
>  <m_name>  (221) 
(2S)-2-amino-3-methylpentanoic acid

>  <symbol>  (221) 
xiIle

>  <m_abbr>  (221) 
xiIle

>  <m_type>  (221) 
aa

>  <m_subtype>  (221) 
non-natural

>  <m_Rgroups>  (221) 
H,OH,None,None

>  <m_RgroupIdx>  (221) 
8,9,None,None

>  <m_attachmentPointIdx>  (221) 
5,6,None,None

>  <natAnalog>  (221) 
I

>  <pdbName>  (221) 
XII

$$$$

     RDKit          2D

 12 12  0  0  0  0  0  0  0  0999 V2000
    0.0000    2.4750    0.0000 C   0  0  0  0  0  0  0  0  0  0  0  0
    0.7145    2.0625    0.0000 N   0  0  0  0  0  0  0  0  0  0  0  0
    0.7145    1.2375    0.0000 C   0  0  0  0  0  0  0  0  0  0  0  0
    1.4289    0.8250    0.0000 C   0  0  0  0  0  0  0  0  0  0  0  0
    1.4289    0.0000    0.0000 C   0  0  0  0  0  0  0  0  0  0  0  0
    0.7145   -0.4125    0.0000 C   0  0  0  0  0  0  0  0  0  0  0  0
    0.0000    0.0000    0.0000 C   0  0  0  0  0  0  0  0  0  0  0  0
    0.0000    0.8250    0.0000 C   0  0  0  0  0  0  0  0  0  0  0  0
   -0.7145    1.2375    0.0000 C   0  0  0  0  0  0  0  0  0  0  0  0
   -1.4289    0.8250    0.0000 O   0  0  0  0  0  0  0  0  0  0  0  0
    1.4289    2.4750    0.0000 R#  0  0  0  0  0  0  0  0  0  0  0  0
   -0.7145    2.0625    0.0000 R#  0  0  0  0  0  0  0  0  0  0  0  0
  1  2  1  0
  2 11  1  0
  2  3  1  0
  3  4  2  0
  4  5  1  0
  5  6  2  0
  6  7  1  0
  7  8  2  0
  3  8  1  0
  8  9  1  0
  9 12  1  0
  9 10  2  0
M  RGP  2  11   1  12   2
V   11 *
V   12 *
M  END
>  <m_name>  (222) 
2-(methylamino)benzoic acid

>  <symbol>  (222) 
NMe2Abz

>  <m_abbr>  (222) 
NMe2Abz

>  <m_type>  (222) 
aa

>  <m_subtype>  (222) 
non-natural

>  <m_Rgroups>  (222) 
H,OH,None,None

>  <m_RgroupIdx>  (222) 
10,11,None,None

>  <m_attachmentPointIdx>  (222) 
1,8,None,None

>  <natAnalog>  (222) 
X

>  <pdbName>  (222) 
NM0

$$$$

     RDKit          2D

  8  7  0  0  0  0  0  0  0  0999 V2000
   -0.1914    0.7145    0.0000 C   0  0  0  0  0  0  0  0  0  0  0  0
    0.5230    1.1270    0.0000 N   0  0  0  0  0  0  0  0  0  0  0  0
    1.2375    0.7145    0.0000 C   0  0  0  0  0  0  0  0  0  0  0  0
    1.9520    1.1270    0.0000 C   0  0  0  0  0  0  0  0  0  0  0  0
    2.6664    0.7145    0.0000 C   0  0  0  0  0  0  0  0  0  0  0  0
    2.6664   -0.1105    0.0000 O   0  0  0  0  0  0  0  0  0  0  0  0
    0.5230    1.9520    0.0000 R#  0  0  0  0  0  0  0  0  0  0  0  0
    3.3809    1.1270    0.0000 R#  0  0  0  0  0  0  0  0  0  0  0  0
  1  2  1  0
  2  7  1  0
  2  3  1  0
  3  4  1  0
  4  5  1  0
  5  8  1  0
  5  6  2  0
M  RGP  2   7   1   8   2
V    7 *
V    8 *
M  END
>  <m_name>  (223) 
3-(methylamino)propanoic acid

>  <symbol>  (223) 
NMebAla

>  <m_abbr>  (223) 
NMebAla

>  <m_type>  (223) 
aa

>  <m_subtype>  (223) 
non-natural

>  <m_Rgroups>  (223) 
H,OH,None,None

>  <m_RgroupIdx>  (223) 
6,7,None,None

>  <m_attachmentPointIdx>  (223) 
1,4,None,None

>  <natAnalog>  (223) 
X

>  <pdbName>  (223) 
NM5

$$$$

     RDKit          2D

 14 14  0  0  0  0  0  0  0  0999 V2000
    1.8414    1.7605    0.0000 C   0  0  0  0  0  0  0  0  0  0  0  0
    1.4289    2.4750    0.0000 C   0  0  0  0  0  0  0  0  0  0  0  0
    0.7145    2.0625    0.0000 C   0  0  0  0  0  0  0  0  0  0  0  0
    0.7145    1.2375    0.0000 C   0  0  0  0  0  0  0  0  0  0  0  0
    1.4289    0.8250    0.0000 C   0  0  0  0  0  0  0  0  0  0  0  0
    1.4289    0.0000    0.0000 C   0  0  0  0  0  0  0  0  0  0  0  0
    0.7145   -0.4125    0.0000 C   0  0  0  0  0  0  0  0  0  0  0  0
    0.0000    0.0000    0.0000 C   0  0  0  0  0  0  0  0  0  0  0  0
    0.0000    0.8250    0.0000 C   0  0  0  0  0  0  0  0  0  0  0  0
    1.0164    3.1895    0.0000 N   0  0  0  0  0  0  0  0  0  0  0  0
    2.1434    2.8875    0.0000 C   0  0  0  0  0  0  0  0  0  0  0  0
    2.8579    2.4750    0.0000 O   0  0  0  0  0  0  0  0  0  0  0  0
    0.1914    3.1895    0.0000 R#  0  0  0  0  0  0  0  0  0  0  0  0
    2.1434    3.7125    0.0000 R#  0  0  0  0  0  0  0  0  0  0  0  0
  2  1  1  1
  2  3  1  0
  3  4  1  0
  4  5  2  0
  5  6  1  0
  6  7  2  0
  7  8  1  0
  8  9  2  0
  4  9  1  0
  2 10  1  0
 10 13  1  0
  2 11  1  0
 11 14  1  0
 11 12  2  0
M  RGP  2  13   1  14   2
V   13 *
V   14 *
M  END
>  <m_name>  (224) 
(2S)-2-amino-2-methyl-3-phenylpropanoic acid

>  <symbol>  (224) 
aMePhe

>  <m_abbr>  (224) 
aMePhe

>  <m_type>  (224) 
aa

>  <m_subtype>  (224) 
non-natural

>  <m_Rgroups>  (224) 
H,OH,None,None

>  <m_RgroupIdx>  (224) 
12,13,None,None

>  <m_attachmentPointIdx>  (224) 
9,10,None,None

>  <natAnalog>  (224) 
F

>  <pdbName>  (224) 
AMK

$$$$

     RDKit          2D

 10 10  0  0  0  0  0  0  0  0999 V2000
    0.0157    1.7274    0.0000 C   0  0  0  0  0  0  0  0  0  0  0  0
    0.5678    1.1143    0.0000 C   0  0  0  0  0  0  0  0  0  0  0  0
    1.2352    0.6294    0.0000 C   0  0  0  0  0  0  0  0  0  0  0  0
    0.9803   -0.1553    0.0000 C   0  0  0  0  0  0  0  0  0  0  0  0
    0.1553   -0.1553    0.0000 C   0  0  0  0  0  0  0  0  0  0  0  0
   -0.0997    0.6294    0.0000 N   0  0  0  0  0  0  0  0  0  0  0  0
    1.1198    1.7274    0.0000 C   0  0  0  0  0  0  0  0  0  0  0  0
    1.9268    1.5559    0.0000 O   0  0  0  0  0  0  0  0  0  0  0  0
   -0.8843    0.8843    0.0000 R#  0  0  0  0  0  0  0  0  0  0  0  0
    0.8649    2.5120    0.0000 R#  0  0  0  0  0  0  0  0  0  0  0  0
  2  1  1  1
  2  3  1  0
  3  4  1  0
  4  5  1  0
  5  6  1  0
  2  6  1  0
  6  9  1  0
  2  7  1  0
  7 10  1  0
  7  8  2  0
M  RGP  2   9   1  10   2
V    9 *
V   10 *
M  END
>  <m_name>  (225) 
(2S)-2-methylpyrrolidine-2-carboxylic acid

>  <symbol>  (225) 
aMePro

>  <m_abbr>  (225) 
aMePro

>  <m_type>  (225) 
aa

>  <m_subtype>  (225) 
non-natural

>  <m_Rgroups>  (225) 
H,OH,None,None

>  <m_RgroupIdx>  (225) 
8,9,None,None

>  <m_attachmentPointIdx>  (225) 
5,6,None,None

>  <natAnalog>  (225) 
P

>  <pdbName>  (225) 
AIP

$$$$

     RDKit          2D

 16 16  0  0  0  0  0  0  0  0999 V2000
    1.8414    1.7605    0.0000 C   0  0  0  0  0  0  0  0  0  0  0  0
    1.4289    2.4750    0.0000 C   0  0  0  0  0  0  0  0  0  0  0  0
    0.7145    2.0625    0.0000 C   0  0  0  0  0  0  0  0  0  0  0  0
    0.7145    1.2375    0.0000 C   0  0  0  0  0  0  0  0  0  0  0  0
    1.4289    0.8250    0.0000 C   0  0  0  0  0  0  0  0  0  0  0  0
    1.4289    0.0000    0.0000 C   0  0  0  0  0  0  0  0  0  0  0  0
    0.7145   -0.4125    0.0000 C   0  0  0  0  0  0  0  0  0  0  0  0
    0.7145   -1.2375    0.0000 O   0  0  0  0  0  0  0  0  0  0  0  0
    0.0000    0.0000    0.0000 C   0  0  0  0  0  0  0  0  0  0  0  0
   -0.7145   -0.4125    0.0000 O   0  0  0  0  0  0  0  0  0  0  0  0
    0.0000    0.8250    0.0000 C   0  0  0  0  0  0  0  0  0  0  0  0
    1.0164    3.1895    0.0000 N   0  0  0  0  0  0  0  0  0  0  0  0
    2.1434    2.8875    0.0000 C   0  0  0  0  0  0  0  0  0  0  0  0
    2.8579    2.4750    0.0000 O   0  0  0  0  0  0  0  0  0  0  0  0
    0.1914    3.1895    0.0000 R#  0  0  0  0  0  0  0  0  0  0  0  0
    2.1434    3.7125    0.0000 R#  0  0  0  0  0  0  0  0  0  0  0  0
  2  1  1  1
  2  3  1  0
  3  4  1  0
  4  5  2  0
  5  6  1  0
  6  7  2  0
  7  8  1  0
  7  9  1  0
  9 10  1  0
  9 11  2  0
  4 11  1  0
  2 12  1  0
 12 15  1  0
  2 13  1  0
 13 16  1  0
 13 14  2  0
M  RGP  2  15   1  16   2
V   15 *
V   16 *
M  END
>  <m_name>  (226) 
(2S)-2-amino-3-(3,4-dihydroxyphenyl)-2-methylpropanoic acid

>  <symbol>  (226) 
aMeTyr_3OH

>  <m_abbr>  (226) 
aMeTyr_3OH

>  <m_type>  (226) 
aa

>  <m_subtype>  (226) 
non-natural

>  <m_Rgroups>  (226) 
H,OH,None,None

>  <m_RgroupIdx>  (226) 
14,15,None,None

>  <m_attachmentPointIdx>  (226) 
11,12,None,None

>  <natAnalog>  (226) 
Y

>  <pdbName>  (226) 
AIY

$$$$

     RDKit          2D

 14 13  0  0  0  0  0  0  0  0999 V2000
    0.8250    0.0000    0.0000 C   0  0  0  0  0  0  0  0  0  0  0  0
    1.2375   -0.7145    0.0000 C   0  0  0  0  0  0  0  0  0  0  0  0
    0.8250   -1.4289    0.0000 C   0  0  0  0  0  0  0  0  0  0  0  0
    1.2375   -2.1434    0.0000 C   0  0  0  0  0  0  0  0  0  0  0  0
    2.0625   -2.1434    0.0000 C   0  0  0  0  0  0  0  0  0  0  0  0
    2.4750   -1.4289    0.0000 C   0  0  0  0  0  0  0  0  0  0  0  0
    2.4750   -2.8579    0.0000 C   0  0  0  0  0  0  0  0  0  0  0  0
    2.0625   -3.5724    0.0000 O   0  0  0  0  0  0  0  0  0  0  0  0
    3.3000   -2.8579    0.0000 C   0  0  0  0  0  0  0  0  0  0  0  0
    3.7125   -3.5724    0.0000 N   0  0  0  0  0  0  0  0  0  0  0  0
    3.7125   -2.1434    0.0000 C   0  0  0  0  0  0  0  0  0  0  0  0
    4.5375   -2.1434    0.0000 O   0  0  0  0  0  0  0  0  0  0  0  0
    4.5375   -3.5724    0.0000 R#  0  0  0  0  0  0  0  0  0  0  0  0
    3.3000   -1.4289    0.0000 R#  0  0  0  0  0  0  0  0  0  0  0  0
  2  1  1  0
  2  3  2  3
  3  4  1  0
  5  4  1  0
  5  6  1  1
  7  5  1  0
  7  8  1  6
  7  9  1  0
  9 10  1  1
 10 13  1  0
  9 11  1  0
 11 14  1  0
 11 12  2  0
M  RGP  2  13   1  14   2
V   13 *
V   14 *
M  END
>  <m_name>  (227) 
(2S,3R,4R)-2-amino-3-hydroxy-4-methyloct-6-enoic acid

>  <symbol>  (227) 
Bmt

>  <m_abbr>  (227) 
Bmt

>  <m_type>  (227) 
aa

>  <m_subtype>  (227) 
non-natural

>  <m_Rgroups>  (227) 
H,OH,None,None

>  <m_RgroupIdx>  (227) 
12,13,None,None

>  <m_attachmentPointIdx>  (227) 
9,10,None,None

>  <natAnalog>  (227) 
X

>  <pdbName>  (227) 
BMY

$$$$

     RDKit          2D

 14 13  0  0  0  0  0  0  0  0999 V2000
    0.8250    0.0000    0.0000 C   0  0  0  0  0  0  0  0  0  0  0  0
    1.2375   -0.7145    0.0000 C   0  0  0  0  0  0  0  0  0  0  0  0
    0.8250   -1.4289    0.0000 C   0  0  0  0  0  0  0  0  0  0  0  0
    1.2375   -2.1434    0.0000 C   0  0  0  0  0  0  0  0  0  0  0  0
    2.0625   -2.1434    0.0000 C   0  0  0  0  0  0  0  0  0  0  0  0
    2.4750   -1.4289    0.0000 C   0  0  0  0  0  0  0  0  0  0  0  0
    2.4750   -2.8579    0.0000 C   0  0  0  0  0  0  0  0  0  0  0  0
    2.0625   -3.5724    0.0000 O   0  0  0  0  0  0  0  0  0  0  0  0
    3.3000   -2.8579    0.0000 C   0  0  0  0  0  0  0  0  0  0  0  0
    3.7125   -3.5724    0.0000 N   0  0  0  0  0  0  0  0  0  0  0  0
    3.7125   -2.1434    0.0000 C   0  0  0  0  0  0  0  0  0  0  0  0
    4.5375   -2.1434    0.0000 O   0  0  0  0  0  0  0  0  0  0  0  0
    4.5375   -3.5724    0.0000 R#  0  0  0  0  0  0  0  0  0  0  0  0
    3.3000   -1.4289    0.0000 R#  0  0  0  0  0  0  0  0  0  0  0  0
  2  1  1  0
  2  3  2  3
  3  4  1  0
  5  4  1  0
  5  6  1  1
  7  5  1  0
  7  8  1  6
  7  9  1  0
  9 10  1  1
 10 13  1  0
  9 11  1  0
 11 14  1  0
 11 12  2  0
M  RGP  2  13   1  14   2
V   13 *
V   14 *
M  END
>  <m_name>  (228) 
(2S,3R,4R,6E)-2-amino-3-hydroxy-4-methyloct-6-enoic acid

>  <symbol>  (228) 
Bmt_E

>  <m_abbr>  (228) 
Bmt_E

>  <m_type>  (228) 
aa

>  <m_subtype>  (228) 
non-natural

>  <m_Rgroups>  (228) 
H,OH,None,None

>  <m_RgroupIdx>  (228) 
12,13,None,None

>  <m_attachmentPointIdx>  (228) 
9,10,None,None

>  <natAnalog>  (228) 
X

>  <pdbName>  (228) 
BAD

$$$$

     RDKit          2D

 15 15  0  0  0  0  0  0  0  0999 V2000
    3.1895   -2.6664    0.0000 N   0  0  0  0  0  0  0  0  0  0  0  0
    2.7770   -1.9520    0.0000 C   0  0  0  0  0  0  0  0  0  0  0  0
    1.9520   -1.9520    0.0000 C   0  0  0  0  0  0  0  0  0  0  0  0
    1.5395   -1.2375    0.0000 S   0  0  0  0  0  0  0  0  0  0  0  0
    0.7145   -1.2375    0.0000 C   0  0  0  0  0  0  0  0  0  0  0  0
    0.3020   -0.5230    0.0000 C   0  0  0  0  0  0  0  0  0  0  0  0
   -0.5230   -0.5230    0.0000 C   0  0  0  0  0  0  0  0  0  0  0  0
   -0.9355    0.1914    0.0000 C   0  0  0  0  0  0  0  0  0  0  0  0
   -0.5230    0.9059    0.0000 C   0  0  0  0  0  0  0  0  0  0  0  0
    0.3020    0.9059    0.0000 C   0  0  0  0  0  0  0  0  0  0  0  0
    0.7145    0.1914    0.0000 C   0  0  0  0  0  0  0  0  0  0  0  0
    3.1895   -1.2375    0.0000 C   0  0  0  0  0  0  0  0  0  0  0  0
    4.0145   -1.2375    0.0000 O   0  0  0  0  0  0  0  0  0  0  0  0
    4.0145   -2.6664    0.0000 R#  0  0  0  0  0  0  0  0  0  0  0  0
    2.7770   -0.5230    0.0000 R#  0  0  0  0  0  0  0  0  0  0  0  0
 14  1  1  0
  2  1  1  0
  2  3  1  1
  3  4  1  0
  4  5  1  0
  5  6  1  0
  6  7  2  0
  7  8  1  0
  8  9  2  0
  9 10  1  0
 10 11  2  0
  6 11  1  0
  2 12  1  0
 12 15  1  0
 12 13  2  0
M  RGP  2  14   1  15   2
V   14 *
V   15 *
M  END
>  <m_name>  (229) 
(2R)-2-amino-3-(benzylsulfanyl)propanoic acid

>  <symbol>  (229) 
Cys_Bn

>  <m_abbr>  (229) 
Cys_Bn

>  <m_type>  (229) 
aa

>  <m_subtype>  (229) 
non-natural

>  <m_Rgroups>  (229) 
H,OH,None,None

>  <m_RgroupIdx>  (229) 
13,14,None,None

>  <m_attachmentPointIdx>  (229) 
0,11,None,None

>  <natAnalog>  (229) 
C

>  <pdbName>  (229) 
CCG

$$$$

     RDKit          2D

 14 13  0  0  0  0  0  0  0  0999 V2000
    2.1434    3.4914    0.0000 O   0  0  0  0  0  0  0  0  0  0  0  0
    2.1434    2.6664    0.0000 C   0  0  0  0  0  0  0  0  0  0  0  0
    2.8579    2.2539    0.0000 O   0  0  0  0  0  0  0  0  0  0  0  0
    1.4289    2.2539    0.0000 C   0  0  0  0  0  0  0  0  0  0  0  0
    0.7145    2.6664    0.0000 C   0  0  0  0  0  0  0  0  0  0  0  0
    0.0000    2.2539    0.0000 C   0  0  0  0  0  0  0  0  0  0  0  0
   -0.7145    2.6664    0.0000 N   0  0  0  0  0  0  0  0  0  0  0  0
    0.0000    1.4289    0.0000 C   0  0  0  0  0  0  0  0  0  0  0  0
   -0.7145    1.0164    0.0000 O   0  0  0  0  0  0  0  0  0  0  0  0
    1.4289    1.4289    0.0000 C   0  0  0  0  0  0  0  0  0  0  0  0
    1.0934    0.6753    0.0000 O   0  0  0  0  0  0  0  0  0  0  0  0
   -0.7145    3.4914    0.0000 R#  0  0  0  0  0  0  0  0  0  0  0  0
    0.7145    1.0164    0.0000 R#  0  0  0  0  0  0  0  0  0  0  0  0
    2.1434    1.0164    0.0000 R#  0  0  0  0  0  0  0  0  0  0  0  0
  1  2  1  0
  2  3  2  0
  2  4  1  0
  4  5  1  0
  6  5  1  1
  6  7  1  0
  7 12  1  0
  6  8  1  0
  8 13  1  0
  8  9  2  0
  4 10  1  0
 10 14  1  0
 10 11  2  0
M  RGP  3  12   1  13   3  14   2
V   12 *
V   13 *
V   14 *
M  END
>  <m_name>  (230) 
Carboxyglutamic acid

>  <symbol>  (230) 
Gla

>  <m_abbr>  (230) 
Gla

>  <m_type>  (230) 
aa

>  <m_subtype>  (230) 
non-natural

>  <m_Rgroups>  (230) 
H,OH,H,None

>  <m_RgroupIdx>  (230) 
11,13,12,None

>  <m_attachmentPointIdx>  (230) 
6,9,7,None

>  <natAnalog>  (230) 
E

>  <pdbName>  (230) 
GBB

$$$$

     RDKit          2D

 13 13  0  0  0  0  0  0  0  0999 V2000
    2.5610    0.0264    0.0000 N   0  0  0  0  0  0  0  0  0  0  0  0
    2.5610   -0.7986    0.0000 C   0  0  0  0  0  0  0  0  0  0  0  0
    1.8465   -1.2111    0.0000 C   0  0  0  0  0  0  0  0  0  0  0  0
    1.8465   -2.0361    0.0000 C   0  0  0  0  0  0  0  0  0  0  0  0
    1.1321   -2.4486    0.0000 C   0  0  0  0  0  0  0  0  0  0  0  0
    1.0458   -3.2691    0.0000 C   0  0  0  0  0  0  0  0  0  0  0  0
    0.2389   -3.4406    0.0000 N   0  0  0  0  0  0  0  0  0  0  0  0
   -0.1736   -2.7261    0.0000 C   0  0  0  0  0  0  0  0  0  0  0  0
    0.3784   -2.1130    0.0000 N   0  0  0  0  0  0  0  0  0  0  0  0
    3.2755   -1.2111    0.0000 C   0  0  0  0  0  0  0  0  0  0  0  0
    3.2755   -2.0361    0.0000 O   0  0  0  0  0  0  0  0  0  0  0  0
    3.2755    0.4389    0.0000 R#  0  0  0  0  0  0  0  0  0  0  0  0
    3.9899   -0.7986    0.0000 R#  0  0  0  0  0  0  0  0  0  0  0  0
 12  1  1  0
  2  1  1  0
  2  3  1  6
  3  4  1  0
  4  5  1  0
  5  6  2  0
  6  7  1  0
  7  8  1  0
  8  9  2  0
  5  9  1  0
  2 10  1  0
 10 13  1  0
 10 11  2  0
M  RGP  2  12   1  13   2
V   12 *
V   13 *
M  END
>  <m_name>  (231) 
(2S)-2-amino-4-(1H-imidazol-4-yl)butanoic acid

>  <symbol>  (231) 
hHis

>  <m_abbr>  (231) 
hHis

>  <m_type>  (231) 
aa

>  <m_subtype>  (231) 
non-natural

>  <m_Rgroups>  (231) 
H,OH,None,None

>  <m_RgroupIdx>  (231) 
11,12,None,None

>  <m_attachmentPointIdx>  (231) 
0,9,None,None

>  <natAnalog>  (231) 
H

>  <pdbName>  (231) 
HHU

$$$$

     RDKit          2D

 13 13  0  0  0  0  0  0  0  0999 V2000
    0.5678    1.9393    0.0000 C   0  0  0  0  0  0  0  0  0  0  0  0
    0.5678    1.1143    0.0000 N   0  0  0  0  0  0  0  0  0  0  0  0
    1.2352    0.6294    0.0000 C   0  0  0  0  0  0  0  0  0  0  0  0
    0.9803   -0.1553    0.0000 N   0  0  0  0  0  0  0  0  0  0  0  0
    0.1553   -0.1553    0.0000 C   0  0  0  0  0  0  0  0  0  0  0  0
   -0.3297   -0.8227    0.0000 C   0  0  0  0  0  0  0  0  0  0  0  0
    0.0059   -1.5764    0.0000 C   0  0  0  0  0  0  0  0  0  0  0  0
   -0.4790   -2.2438    0.0000 N   0  0  0  0  0  0  0  0  0  0  0  0
    0.8264   -1.6626    0.0000 C   0  0  0  0  0  0  0  0  0  0  0  0
    1.3113   -0.9952    0.0000 O   0  0  0  0  0  0  0  0  0  0  0  0
   -0.0997    0.6294    0.0000 C   0  0  0  0  0  0  0  0  0  0  0  0
   -0.1435   -2.9975    0.0000 R#  0  0  0  0  0  0  0  0  0  0  0  0
    1.1619   -2.4163    0.0000 R#  0  0  0  0  0  0  0  0  0  0  0  0
  1  2  1  0
  2  3  1  0
  3  4  2  0
  4  5  1  0
  5  6  1  0
  7  6  1  1
  7  8  1  0
  8 12  1  0
  7  9  1  0
  9 13  1  0
  9 10  2  0
  5 11  2  0
  2 11  1  0
M  RGP  2  12   1  13   2
V   12 *
V   13 *
M  END
>  <m_name>  (232) 
(2S)-2-amino-3-(1-methyl-1H-imidazol-4-yl)propanoic acid

>  <symbol>  (232) 
His_1Me

>  <m_abbr>  (232) 
His_1Me

>  <m_type>  (232) 
aa

>  <m_subtype>  (232) 
non-natural

>  <m_Rgroups>  (232) 
H,OH,None,None

>  <m_RgroupIdx>  (232) 
11,12,None,None

>  <m_attachmentPointIdx>  (232) 
7,8,None,None

>  <natAnalog>  (232) 
H

>  <pdbName>  (232) 
HIH

$$$$

     RDKit          2D

  9  8  0  0  0  0  0  0  0  0999 V2000
    1.9520   -1.9520    0.0000 N   0  0  0  0  0  0  0  0  0  0  0  0
    1.9520   -1.1270    0.0000 C   0  0  0  0  0  0  0  0  0  0  0  0
    1.2375   -0.7145    0.0000 C   0  0  0  0  0  0  0  0  0  0  0  0
    1.2375    0.1105    0.0000 C   0  0  0  0  0  0  0  0  0  0  0  0
    0.5230    0.5230    0.0000 C   0  0  0  0  0  0  0  0  0  0  0  0
    2.6664   -0.7145    0.0000 C   0  0  0  0  0  0  0  0  0  0  0  0
    3.3809   -1.1270    0.0000 O   0  0  0  0  0  0  0  0  0  0  0  0
    2.6664   -2.3645    0.0000 R#  0  0  0  0  0  0  0  0  0  0  0  0
    2.6664    0.1105    0.0000 R#  0  0  0  0  0  0  0  0  0  0  0  0
  8  1  1  0
  2  1  1  0
  2  3  1  1
  3  4  1  0
  4  5  2  0
  2  6  1  0
  6  9  1  0
  6  7  2  0
M  RGP  2   8   1   9   2
V    8 *
V    9 *
M  END
>  <m_name>  (233) 
(2S)-2-aminopent-4-enoic acid

>  <symbol>  (233) 
Gly_allyl

>  <m_abbr>  (233) 
Gly_allyl

>  <m_type>  (233) 
aa

>  <m_subtype>  (233) 
non-natural

>  <m_Rgroups>  (233) 
H,OH,None,None

>  <m_RgroupIdx>  (233) 
7,8,None,None

>  <m_attachmentPointIdx>  (233) 
0,5,None,None

>  <natAnalog>  (233) 
G

>  <pdbName>  (233) 
GBY

$$$$

     RDKit          2D

  9  9  0  0  0  0  0  0  0  0999 V2000
   -0.4763    2.1263    0.0000 N   0  0  0  0  0  0  0  0  0  0  0  0
    0.2382    1.7138    0.0000 C   0  0  0  0  0  0  0  0  0  0  0  0
    0.2382    0.8888    0.0000 C   0  0  0  0  0  0  0  0  0  0  0  0
    0.6507    0.1743    0.0000 C   0  0  0  0  0  0  0  0  0  0  0  0
   -0.1743    0.1743    0.0000 C   0  0  0  0  0  0  0  0  0  0  0  0
    0.9526    2.1263    0.0000 C   0  0  0  0  0  0  0  0  0  0  0  0
    0.9526    2.9513    0.0000 O   0  0  0  0  0  0  0  0  0  0  0  0
   -0.4763    2.9513    0.0000 R#  0  0  0  0  0  0  0  0  0  0  0  0
    1.6671    1.7138    0.0000 R#  0  0  0  0  0  0  0  0  0  0  0  0
  8  1  1  0
  2  1  1  6
  2  3  1  0
  3  4  1  0
  4  5  1  0
  3  5  1  0
  2  6  1  0
  6  9  1  0
  6  7  2  0
M  RGP  2   8   1   9   2
V    8 *
V    9 *
M  END
>  <m_name>  (234) 
(2S)-2-amino-2-cyclopropylacetic acid

>  <symbol>  (234) 
Gly_cPr

>  <m_abbr>  (234) 
Gly_cPr

>  <m_type>  (234) 
aa

>  <m_subtype>  (234) 
non-natural

>  <m_Rgroups>  (234) 
H,OH,None,None

>  <m_RgroupIdx>  (234) 
7,8,None,None

>  <m_attachmentPointIdx>  (234) 
0,5,None,None

>  <natAnalog>  (234) 
G

>  <pdbName>  (234) 
GCI

$$$$

     RDKit          2D

  8  8  0  0  0  0  0  0  0  0999 V2000
    0.5678    1.9393    0.0000 N   0  0  0  0  0  0  0  0  0  0  0  0
    0.5678    1.1143    0.0000 C   0  0  0  0  0  0  0  0  0  0  0  0
    1.2352    0.6294    0.0000 C   0  0  0  0  0  0  0  0  0  0  0  0
    0.9803   -0.1553    0.0000 C   0  0  0  0  0  0  0  0  0  0  0  0
    0.1553   -0.1553    0.0000 O   0  0  0  0  0  0  0  0  0  0  0  0
   -0.0997    0.6294    0.0000 C   0  0  0  0  0  0  0  0  0  0  0  0
   -0.8843    0.8843    0.0000 O   0  0  0  0  0  0  0  0  0  0  0  0
   -0.1467    2.3518    0.0000 R#  0  0  0  0  0  0  0  0  0  0  0  0
  8  1  1  0
  2  1  1  1
  2  3  1  0
  3  4  1  0
  4  5  1  0
  5  6  1  0
  2  6  1  0
  6  7  2  0
M  RGP  1   8   1
V    8 *
M  END
>  <m_name>  (235) 
(3S)-3-aminooxolan-2-one

>  <symbol>  (235) 
Hsl

>  <m_abbr>  (235) 
Hsl

>  <m_type>  (235) 
aa

>  <m_subtype>  (235) 
non-natural

>  <m_Rgroups>  (235) 
H,None,None,None

>  <m_RgroupIdx>  (235) 
7,None,None,None

>  <m_attachmentPointIdx>  (235) 
0,None,None,None

>  <natAnalog>  (235) 
X

>  <pdbName>  (235) 
HSN

$$$$

     RDKit          2D

 16 16  0  0  0  0  0  0  0  0999 V2000
    0.7145   -1.2375    0.0000 N   0  0  0  0  0  0  0  0  0  0  0  0
    0.7145   -0.4125    0.0000 C   0  0  0  0  0  0  0  0  0  0  0  0
    0.0000    0.0000    0.0000 C   0  0  0  0  0  0  0  0  0  0  0  0
    0.0000    0.8250    0.0000 C   0  0  0  0  0  0  0  0  0  0  0  0
    0.7145    1.2375    0.0000 C   0  0  0  0  0  0  0  0  0  0  0  0
    1.4289    0.8250    0.0000 C   0  0  0  0  0  0  0  0  0  0  0  0
    1.4289    0.0000    0.0000 C   0  0  0  0  0  0  0  0  0  0  0  0
    2.1434   -0.4125    0.0000 C   0  0  0  0  0  0  0  0  0  0  0  0
    2.8579    0.0000    0.0000 O   0  0  0  0  0  0  0  0  0  0  0  0
    2.1434   -1.2375    0.0000 C   0  0  0  0  0  0  0  0  0  0  0  0
    2.8579   -1.6500    0.0000 C   0  0  0  0  0  0  0  0  0  0  0  0
    2.8579   -2.4750    0.0000 N   0  0  0  0  0  0  0  0  0  0  0  0
    3.5724   -1.2375    0.0000 C   0  0  0  0  0  0  0  0  0  0  0  0
    4.2868   -1.6500    0.0000 O   0  0  0  0  0  0  0  0  0  0  0  0
    3.5724   -2.8875    0.0000 R#  0  0  0  0  0  0  0  0  0  0  0  0
    3.5724   -0.4125    0.0000 R#  0  0  0  0  0  0  0  0  0  0  0  0
  1  2  1  0
  2  3  2  0
  3  4  1  0
  4  5  2  0
  5  6  1  0
  6  7  2  0
  2  7  1  0
  7  8  1  0
  8  9  2  0
  8 10  1  0
 11 10  1  1
 11 12  1  0
 12 15  1  0
 11 13  1  0
 13 16  1  0
 13 14  2  0
M  RGP  2  15   1  16   2
V   15 *
V   16 *
M  END
>  <m_name>  (236) 
(2S)-2-amino-4-(2-aminophenyl)-4-oxobutanoic acid

>  <symbol>  (236) 
Asp_Ph2NH2

>  <m_abbr>  (236) 
Asp_Ph2NH2

>  <m_type>  (236) 
aa

>  <m_subtype>  (236) 
non-natural

>  <m_Rgroups>  (236) 
H,OH,None,None

>  <m_RgroupIdx>  (236) 
14,15,None,None

>  <m_attachmentPointIdx>  (236) 
11,12,None,None

>  <natAnalog>  (236) 
D

>  <pdbName>  (236) 
AI0

$$$$

     RDKit          2D

  7  7  0  0  0  0  0  0  0  0999 V2000
    0.2382    0.8888    0.0000 N   0  0  0  0  0  0  0  0  0  0  0  0
    0.6507    0.1743    0.0000 C   0  0  0  0  0  0  0  0  0  0  0  0
   -0.1743    0.1743    0.0000 C   0  0  0  0  0  0  0  0  0  0  0  0
   -0.8888   -0.2382    0.0000 C   0  0  0  0  0  0  0  0  0  0  0  0
   -1.6033    0.1743    0.0000 O   0  0  0  0  0  0  0  0  0  0  0  0
    0.2382    1.7138    0.0000 R#  0  0  0  0  0  0  0  0  0  0  0  0
   -0.8888   -1.0632    0.0000 R#  0  0  0  0  0  0  0  0  0  0  0  0
  6  1  1  0
  1  2  1  0
  3  2  1  0
  3  1  1  0
  3  4  1  1
  4  7  1  0
  4  5  2  0
M  RGP  2   6   1   7   2
V    6 *
V    7 *
M  END
>  <m_name>  (237) 
(2S)-aziridine-2-carboxylic acid

>  <symbol>  (237) 
Azi

>  <m_abbr>  (237) 
Azi

>  <m_type>  (237) 
aa

>  <m_subtype>  (237) 
non-natural

>  <m_Rgroups>  (237) 
H,OH,None,None

>  <m_RgroupIdx>  (237) 
5,6,None,None

>  <m_attachmentPointIdx>  (237) 
0,3,None,None

>  <natAnalog>  (237) 
X

>  <pdbName>  (237) 
AI4

$$$$

     RDKit          2D

 11 11  0  0  0  0  0  0  0  0999 V2000
    0.7145    2.0625    0.0000 N   0  0  0  0  0  0  0  0  0  0  0  0
    0.7145    1.2375    0.0000 C   0  0  0  0  0  0  0  0  0  0  0  0
    1.4289    0.8250    0.0000 C   0  0  0  0  0  0  0  0  0  0  0  0
    1.4289    0.0000    0.0000 C   0  0  0  0  0  0  0  0  0  0  0  0
    0.7145   -0.4125    0.0000 C   0  0  0  0  0  0  0  0  0  0  0  0
    0.0000    0.0000    0.0000 C   0  0  0  0  0  0  0  0  0  0  0  0
    0.0000    0.8250    0.0000 C   0  0  0  0  0  0  0  0  0  0  0  0
   -0.7145    1.2375    0.0000 C   0  0  0  0  0  0  0  0  0  0  0  0
   -1.4289    0.8250    0.0000 O   0  0  0  0  0  0  0  0  0  0  0  0
    0.0000    2.4750    0.0000 R#  0  0  0  0  0  0  0  0  0  0  0  0
   -0.7145    2.0625    0.0000 R#  0  0  0  0  0  0  0  0  0  0  0  0
 10  1  1  0
  1  2  1  0
  2  3  2  0
  3  4  1  0
  4  5  2  0
  5  6  1  0
  6  7  2  0
  2  7  1  0
  7  8  1  0
  8 11  1  0
  8  9  2  0
M  RGP  2  10   1  11   2
V   10 *
V   11 *
M  END
>  <m_name>  (238) 
2-Aminobenzoic acid

>  <symbol>  (238) 
2Abz

>  <m_abbr>  (238) 
2Abz

>  <m_type>  (238) 
aa

>  <m_subtype>  (238) 
non-natural

>  <m_Rgroups>  (238) 
H,OH,None,None

>  <m_RgroupIdx>  (238) 
9,10,None,None

>  <m_attachmentPointIdx>  (238) 
0,7,None,None

>  <natAnalog>  (238) 
X

>  <pdbName>  (238) 
2CI

$$$$

     RDKit          2D

 11 11  0  0  0  0  0  0  0  0999 V2000
    0.7145    2.0625    0.0000 N   0  0  0  0  0  0  0  0  0  0  0  0
    0.7145    1.2375    0.0000 C   0  0  0  0  0  0  0  0  0  0  0  0
    1.4289    0.8250    0.0000 C   0  0  0  0  0  0  0  0  0  0  0  0
    1.4289    0.0000    0.0000 C   0  0  0  0  0  0  0  0  0  0  0  0
    0.7145   -0.4125    0.0000 C   0  0  0  0  0  0  0  0  0  0  0  0
    0.0000    0.0000    0.0000 C   0  0  0  0  0  0  0  0  0  0  0  0
    0.0000    0.8250    0.0000 C   0  0  0  0  0  0  0  0  0  0  0  0
   -0.7145   -0.4125    0.0000 C   0  0  0  0  0  0  0  0  0  0  0  0
   -1.4289    0.0000    0.0000 O   0  0  0  0  0  0  0  0  0  0  0  0
    1.4289    2.4750    0.0000 R#  0  0  0  0  0  0  0  0  0  0  0  0
   -0.7145   -1.2375    0.0000 R#  0  0  0  0  0  0  0  0  0  0  0  0
 10  1  1  0
  1  2  1  0
  2  3  2  0
  3  4  1  0
  4  5  2  0
  5  6  1  0
  6  7  2  0
  2  7  1  0
  6  8  1  0
  8 11  1  0
  8  9  2  0
M  RGP  2  10   1  11   2
V   10 *
V   11 *
M  END
>  <m_name>  (239) 
3-Aminobenzoic acid

>  <symbol>  (239) 
3Abz

>  <m_abbr>  (239) 
3Abz

>  <m_type>  (239) 
aa

>  <m_subtype>  (239) 
non-natural

>  <m_Rgroups>  (239) 
H,OH,None,None

>  <m_RgroupIdx>  (239) 
9,10,None,None

>  <m_attachmentPointIdx>  (239) 
0,7,None,None

>  <natAnalog>  (239) 
X

>  <pdbName>  (239) 
3B7

$$$$

     RDKit          2D

 11 11  0  0  0  0  0  0  0  0999 V2000
    0.7145    2.0625    0.0000 N   0  0  0  0  0  0  0  0  0  0  0  0
    0.7145    1.2375    0.0000 C   0  0  0  0  0  0  0  0  0  0  0  0
    1.4289    0.8250    0.0000 C   0  0  0  0  0  0  0  0  0  0  0  0
    1.4289    0.0000    0.0000 C   0  0  0  0  0  0  0  0  0  0  0  0
    0.7145   -0.4125    0.0000 C   0  0  0  0  0  0  0  0  0  0  0  0
    0.0000    0.0000    0.0000 C   0  0  0  0  0  0  0  0  0  0  0  0
    0.0000    0.8250    0.0000 C   0  0  0  0  0  0  0  0  0  0  0  0
    0.7145   -1.2375    0.0000 C   0  0  0  0  0  0  0  0  0  0  0  0
    0.0000   -1.6500    0.0000 O   0  0  0  0  0  0  0  0  0  0  0  0
    0.0000    2.4750    0.0000 R#  0  0  0  0  0  0  0  0  0  0  0  0
    1.4289   -1.6500    0.0000 R#  0  0  0  0  0  0  0  0  0  0  0  0
 10  1  1  0
  1  2  1  0
  2  3  2  0
  3  4  1  0
  4  5  2  0
  5  6  1  0
  6  7  2  0
  2  7  1  0
  5  8  1  0
  8 11  1  0
  8  9  2  0
M  RGP  2  10   1  11   2
V   10 *
V   11 *
M  END
>  <m_name>  (240) 
4-Aminobenzoic acid

>  <symbol>  (240) 
4Abz

>  <m_abbr>  (240) 
4Abz

>  <m_type>  (240) 
aa

>  <m_subtype>  (240) 
non-natural

>  <m_Rgroups>  (240) 
H,OH,None,None

>  <m_RgroupIdx>  (240) 
9,10,None,None

>  <m_attachmentPointIdx>  (240) 
0,7,None,None

>  <natAnalog>  (240) 
X

>  <pdbName>  (240) 
4AI

$$$$

     RDKit          2D

  8  8  0  0  0  0  0  0  0  0999 V2000
   -0.3938    1.4191    0.0000 N   0  0  0  0  0  0  0  0  0  0  0  0
    0.2382    0.8888    0.0000 C   0  0  0  0  0  0  0  0  0  0  0  0
    0.6507    0.1743    0.0000 C   0  0  0  0  0  0  0  0  0  0  0  0
   -0.1743    0.1743    0.0000 C   0  0  0  0  0  0  0  0  0  0  0  0
    0.8701    1.4191    0.0000 C   0  0  0  0  0  0  0  0  0  0  0  0
    1.6454    1.1369    0.0000 O   0  0  0  0  0  0  0  0  0  0  0  0
   -1.1691    1.1369    0.0000 R#  0  0  0  0  0  0  0  0  0  0  0  0
    0.7269    2.2316    0.0000 R#  0  0  0  0  0  0  0  0  0  0  0  0
  7  1  1  0
  1  2  1  0
  2  3  1  0
  3  4  1  0
  2  4  1  0
  2  5  1  0
  5  8  1  0
  5  6  2  0
M  RGP  2   7   1   8   2
V    7 *
V    8 *
M  END
>  <m_name>  (241) 
1-aminocyclopropane-1-carboxylic acid

>  <symbol>  (241) 
Ac3c

>  <m_abbr>  (241) 
Ac3c

>  <m_type>  (241) 
aa

>  <m_subtype>  (241) 
non-natural

>  <m_Rgroups>  (241) 
H,OH,None,None

>  <m_RgroupIdx>  (241) 
6,7,None,None

>  <m_attachmentPointIdx>  (241) 
0,4,None,None

>  <natAnalog>  (241) 
X

>  <pdbName>  (241) 
AI6

$$$$

     RDKit          2D

 11 11  0  0  0  0  0  0  0  0999 V2000
    0.1842    1.8695    0.0000 N   0  0  0  0  0  0  0  0  0  0  0  0
    0.7145    1.2375    0.0000 C   0  0  0  0  0  0  0  0  0  0  0  0
    1.4289    0.8250    0.0000 C   0  0  0  0  0  0  0  0  0  0  0  0
    1.4289    0.0000    0.0000 C   0  0  0  0  0  0  0  0  0  0  0  0
    0.7145   -0.4125    0.0000 C   0  0  0  0  0  0  0  0  0  0  0  0
    0.0000    0.0000    0.0000 C   0  0  0  0  0  0  0  0  0  0  0  0
    0.0000    0.8250    0.0000 C   0  0  0  0  0  0  0  0  0  0  0  0
    1.2448    1.8695    0.0000 C   0  0  0  0  0  0  0  0  0  0  0  0
    0.9626    2.6447    0.0000 O   0  0  0  0  0  0  0  0  0  0  0  0
   -0.6283    1.7262    0.0000 R#  0  0  0  0  0  0  0  0  0  0  0  0
    2.0572    1.7262    0.0000 R#  0  0  0  0  0  0  0  0  0  0  0  0
 10  1  1  0
  1  2  1  0
  2  3  1  0
  3  4  1  0
  4  5  1  0
  5  6  1  0
  6  7  1  0
  2  7  1  0
  2  8  1  0
  8 11  1  0
  8  9  2  0
M  RGP  2  10   1  11   2
V   10 *
V   11 *
M  END
>  <m_name>  (242) 
1-aminocyclohexane-1-carboxylic acid

>  <symbol>  (242) 
Ac6c

>  <m_abbr>  (242) 
Ac6c

>  <m_type>  (242) 
aa

>  <m_subtype>  (242) 
non-natural

>  <m_Rgroups>  (242) 
H,OH,None,None

>  <m_RgroupIdx>  (242) 
9,10,None,None

>  <m_attachmentPointIdx>  (242) 
0,7,None,None

>  <natAnalog>  (242) 
X

>  <pdbName>  (242) 
AJC

$$$$

     RDKit          2D

  7  6  0  0  0  0  0  0  0  0999 V2000
    0.5230    1.1270    0.0000 N   0  0  0  0  0  0  0  0  0  0  0  0
    1.2375    0.7145    0.0000 C   0  0  0  0  0  0  0  0  0  0  0  0
    1.9520    1.1270    0.0000 C   0  0  0  0  0  0  0  0  0  0  0  0
    2.6664    0.7145    0.0000 C   0  0  0  0  0  0  0  0  0  0  0  0
    2.6664   -0.1105    0.0000 O   0  0  0  0  0  0  0  0  0  0  0  0
   -0.1914    0.7145    0.0000 R#  0  0  0  0  0  0  0  0  0  0  0  0
    3.3809    1.1270    0.0000 R#  0  0  0  0  0  0  0  0  0  0  0  0
  6  1  1  0
  1  2  1  0
  2  3  1  0
  3  4  1  0
  4  7  1  0
  4  5  2  0
M  RGP  2   6   1   7   2
V    6 *
V    7 *
M  END
>  <m_name>  (243) 
3-aminopropanoic acid

>  <symbol>  (243) 
bAla

>  <m_abbr>  (243) 
bAla

>  <m_type>  (243) 
aa

>  <m_subtype>  (243) 
non-natural

>  <m_Rgroups>  (243) 
H,OH,None,None

>  <m_RgroupIdx>  (243) 
5,6,None,None

>  <m_attachmentPointIdx>  (243) 
0,3,None,None

>  <natAnalog>  (243) 
A

>  <pdbName>  (243) 
BBD

$$$$

     RDKit          2D

 14 13  0  0  0  0  0  0  0  0999 V2000
    0.8250    0.0000    0.0000 C   0  0  0  0  0  0  0  0  0  0  0  0
    1.2375   -0.7145    0.0000 C   0  0  0  0  0  0  0  0  0  0  0  0
    0.8250   -1.4289    0.0000 C   0  0  0  0  0  0  0  0  0  0  0  0
    1.2375   -2.1434    0.0000 C   0  0  0  0  0  0  0  0  0  0  0  0
    2.0625   -2.1434    0.0000 C   0  0  0  0  0  0  0  0  0  0  0  0
    2.4750   -1.4289    0.0000 C   0  0  0  0  0  0  0  0  0  0  0  0
    2.4750   -2.8579    0.0000 C   0  0  0  0  0  0  0  0  0  0  0  0
    2.0625   -3.5724    0.0000 O   0  0  0  0  0  0  0  0  0  0  0  0
    3.3000   -2.8579    0.0000 C   0  0  0  0  0  0  0  0  0  0  0  0
    3.7125   -3.5724    0.0000 N   0  0  0  0  0  0  0  0  0  0  0  0
    3.7125   -2.1434    0.0000 C   0  0  0  0  0  0  0  0  0  0  0  0
    4.5375   -2.1434    0.0000 O   0  0  0  0  0  0  0  0  0  0  0  0
    4.5375   -3.5724    0.0000 R#  0  0  0  0  0  0  0  0  0  0  0  0
    3.3000   -1.4289    0.0000 R#  0  0  0  0  0  0  0  0  0  0  0  0
  2  1  1  0
  2  3  2  3
  3  4  1  0
  5  4  1  0
  5  6  1  6
  7  5  1  0
  7  8  1  1
  7  9  1  0
  9 10  1  6
 10 13  1  0
  9 11  1  0
 11 14  1  0
 11 12  2  0
M  RGP  2  13   1  14   2
V   13 *
V   14 *
M  END
>  <m_name>  (244) 
(2R,3S,4S)-2-amino-3-hydroxy-4-methyloct-6-enoic acid

>  <symbol>  (244) 
D_Bmt

>  <m_abbr>  (244) 
D_Bmt

>  <m_type>  (244) 
aa

>  <m_subtype>  (244) 
non-natural

>  <m_Rgroups>  (244) 
H,OH,None,None

>  <m_RgroupIdx>  (244) 
12,13,None,None

>  <m_attachmentPointIdx>  (244) 
9,10,None,None

>  <natAnalog>  (244) 
X

>  <pdbName>  (244) 
D1O

$$$$

     RDKit          2D

 14 13  0  0  0  0  0  0  0  0999 V2000
    0.8250    0.0000    0.0000 C   0  0  0  0  0  0  0  0  0  0  0  0
    1.2375   -0.7145    0.0000 C   0  0  0  0  0  0  0  0  0  0  0  0
    0.8250   -1.4289    0.0000 C   0  0  0  0  0  0  0  0  0  0  0  0
    1.2375   -2.1434    0.0000 C   0  0  0  0  0  0  0  0  0  0  0  0
    2.0625   -2.1434    0.0000 C   0  0  0  0  0  0  0  0  0  0  0  0
    2.4750   -1.4289    0.0000 C   0  0  0  0  0  0  0  0  0  0  0  0
    2.4750   -2.8579    0.0000 C   0  0  0  0  0  0  0  0  0  0  0  0
    2.0625   -3.5724    0.0000 O   0  0  0  0  0  0  0  0  0  0  0  0
    3.3000   -2.8579    0.0000 C   0  0  0  0  0  0  0  0  0  0  0  0
    3.7125   -3.5724    0.0000 N   0  0  0  0  0  0  0  0  0  0  0  0
    3.7125   -2.1434    0.0000 C   0  0  0  0  0  0  0  0  0  0  0  0
    4.5375   -2.1434    0.0000 O   0  0  0  0  0  0  0  0  0  0  0  0
    4.5375   -3.5724    0.0000 R#  0  0  0  0  0  0  0  0  0  0  0  0
    3.3000   -1.4289    0.0000 R#  0  0  0  0  0  0  0  0  0  0  0  0
  2  1  1  0
  2  3  2  3
  3  4  1  0
  5  4  1  0
  5  6  1  6
  7  5  1  0
  7  8  1  1
  7  9  1  0
  9 10  1  6
 10 13  1  0
  9 11  1  0
 11 14  1  0
 11 12  2  0
M  RGP  2  13   1  14   2
V   13 *
V   14 *
M  END
>  <m_name>  (245) 
(2R,3S,4S,6E)-2-amino-3-hydroxy-4-methyloct-6-enoic acid

>  <symbol>  (245) 
D_Bmt_E

>  <m_abbr>  (245) 
D_Bmt_E

>  <m_type>  (245) 
aa

>  <m_subtype>  (245) 
non-natural

>  <m_Rgroups>  (245) 
H,OH,None,None

>  <m_RgroupIdx>  (245) 
12,13,None,None

>  <m_attachmentPointIdx>  (245) 
9,10,None,None

>  <natAnalog>  (245) 
X

>  <pdbName>  (245) 
D4C

$$$$

     RDKit          2D

 14 13  0  0  0  0  0  0  0  0999 V2000
   -0.1127   -3.1046    0.0000 N   0  0  0  0  0  0  0  0  0  0  0  0
    0.6974   -2.9487    0.0000 C   0  0  0  0  0  0  0  0  0  0  0  0
    0.9675   -2.1692    0.0000 N   0  0  0  0  0  0  0  0  0  0  0  0
    1.2375   -3.5724    0.0000 N   0  0  0  0  0  0  0  0  0  0  0  0
    2.0476   -3.4164    0.0000 C   0  0  0  0  0  0  0  0  0  0  0  0
    2.5877   -4.0401    0.0000 C   0  0  0  0  0  0  0  0  0  0  0  0
    3.3979   -3.8842    0.0000 C   0  0  0  0  0  0  0  0  0  0  0  0
    3.9379   -4.5078    0.0000 C   0  0  0  0  0  0  0  0  0  0  0  0
    4.7481   -4.3519    0.0000 C   0  0  0  0  0  0  0  0  0  0  0  0
    5.2882   -4.9755    0.0000 N   0  0  0  0  0  0  0  0  0  0  0  0
    5.0181   -3.5724    0.0000 C   0  0  0  0  0  0  0  0  0  0  0  0
    5.8283   -3.4164    0.0000 O   0  0  0  0  0  0  0  0  0  0  0  0
    6.0983   -4.8196    0.0000 R#  0  0  0  0  0  0  0  0  0  0  0  0
    4.4780   -2.9487    0.0000 R#  0  0  0  0  0  0  0  0  0  0  0  0
  1  2  1  0
  2  3  2  0
  2  4  1  0
  4  5  1  0
  5  6  1  0
  6  7  1  0
  7  8  1  0
  9  8  1  6
  9 10  1  0
 10 13  1  0
  9 11  1  0
 11 14  1  0
 11 12  2  0
M  RGP  2  13   1  14   2
V   13 *
V   14 *
M  END
>  <m_name>  (246) 
(2R)-2-amino-6-[(diaminomethylidene)amino]hexanoic acid

>  <symbol>  (246) 
D_hArg

>  <m_abbr>  (246) 
D_hArg

>  <m_type>  (246) 
aa

>  <m_subtype>  (246) 
non-natural

>  <m_Rgroups>  (246) 
H,OH,None,None

>  <m_RgroupIdx>  (246) 
12,13,None,None

>  <m_attachmentPointIdx>  (246) 
9,10,None,None

>  <natAnalog>  (246) 
R

>  <pdbName>  (246) 
D4E

$$$$

     RDKit          2D

 14 14  0  0  0  0  0  0  0  0999 V2000
    0.7145    2.0625    0.0000 F   0  0  0  0  0  0  0  0  0  0  0  0
    0.7145    1.2375    0.0000 C   0  0  0  0  0  0  0  0  0  0  0  0
    1.4289    0.8250    0.0000 C   0  0  0  0  0  0  0  0  0  0  0  0
    1.4289    0.0000    0.0000 C   0  0  0  0  0  0  0  0  0  0  0  0
    0.7145   -0.4125    0.0000 C   0  0  0  0  0  0  0  0  0  0  0  0
    0.7145   -1.2375    0.0000 C   0  0  0  0  0  0  0  0  0  0  0  0
    1.4289   -1.6500    0.0000 C   0  0  0  0  0  0  0  0  0  0  0  0
    1.4289   -2.4750    0.0000 N   0  0  0  0  0  0  0  0  0  0  0  0
    2.1434   -1.2375    0.0000 C   0  0  0  0  0  0  0  0  0  0  0  0
    2.1434   -0.4125    0.0000 O   0  0  0  0  0  0  0  0  0  0  0  0
    0.0000    0.0000    0.0000 C   0  0  0  0  0  0  0  0  0  0  0  0
    0.0000    0.8250    0.0000 C   0  0  0  0  0  0  0  0  0  0  0  0
    2.1434   -2.8875    0.0000 R#  0  0  0  0  0  0  0  0  0  0  0  0
    2.8579   -1.6500    0.0000 R#  0  0  0  0  0  0  0  0  0  0  0  0
  1  2  1  0
  2  3  2  0
  3  4  1  0
  4  5  2  0
  5  6  1  0
  7  6  1  6
  7  8  1  0
  8 13  1  0
  7  9  1  0
  9 14  1  0
  9 10  2  0
  5 11  1  0
 11 12  2  0
  2 12  1  0
M  RGP  2  13   1  14   2
V   13 *
V   14 *
M  END
>  <m_name>  (247) 
(2R)-2-amino-3-(4-fluorophenyl)propanoic acid

>  <symbol>  (247) 
D_Phe_4F

>  <m_abbr>  (247) 
D_Phe_4F

>  <m_type>  (247) 
aa

>  <m_subtype>  (247) 
non-natural

>  <m_Rgroups>  (247) 
H,OH,None,None

>  <m_RgroupIdx>  (247) 
12,13,None,None

>  <m_attachmentPointIdx>  (247) 
7,8,None,None

>  <natAnalog>  (247) 
F

>  <pdbName>  (247) 
D5A

$$$$

     RDKit          2D

 17 18  0  0  0  0  0  0  0  0999 V2000
   -0.1712   -0.6979    0.0000 C   0  0  0  0  0  0  0  0  0  0  0  0
    0.6538   -0.6979    0.0000 C   0  0  0  0  0  0  0  0  0  0  0  0
    1.1387   -0.0305    0.0000 N   0  0  0  0  0  0  0  0  0  0  0  0
    1.9233   -0.2854    0.0000 C   0  0  0  0  0  0  0  0  0  0  0  0
    2.6378    0.1271    0.0000 C   0  0  0  0  0  0  0  0  0  0  0  0
    3.3523   -0.2854    0.0000 C   0  0  0  0  0  0  0  0  0  0  0  0
    3.3523   -1.1104    0.0000 C   0  0  0  0  0  0  0  0  0  0  0  0
    2.6378   -1.5229    0.0000 C   0  0  0  0  0  0  0  0  0  0  0  0
    1.9233   -1.1104    0.0000 C   0  0  0  0  0  0  0  0  0  0  0  0
    1.1387   -1.3654    0.0000 C   0  0  0  0  0  0  0  0  0  0  0  0
    0.8838   -2.1500    0.0000 C   0  0  0  0  0  0  0  0  0  0  0  0
    1.4358   -2.7631    0.0000 C   0  0  0  0  0  0  0  0  0  0  0  0
    2.2428   -2.5916    0.0000 N   0  0  0  0  0  0  0  0  0  0  0  0
    1.1809   -3.5477    0.0000 C   0  0  0  0  0  0  0  0  0  0  0  0
    0.3739   -3.7192    0.0000 O   0  0  0  0  0  0  0  0  0  0  0  0
    2.7948   -3.2047    0.0000 R#  0  0  0  0  0  0  0  0  0  0  0  0
    1.7329   -4.1608    0.0000 R#  0  0  0  0  0  0  0  0  0  0  0  0
  1  2  1  0
  2  3  1  0
  3  4  1  0
  4  5  2  0
  5  6  1  0
  6  7  2  0
  7  8  1  0
  8  9  2  0
  4  9  1  0
  9 10  1  0
  2 10  2  0
 10 11  1  0
 12 11  1  1
 12 13  1  0
 13 16  1  0
 12 14  1  0
 14 17  1  0
 14 15  2  0
M  RGP  2  16   1  17   2
V   16 *
V   17 *
M  END
>  <m_name>  (248) 
(2R)-2-amino-3-(2-methyl-1H-indol-3-yl)propanoic acid

>  <symbol>  (248) 
D_Trp_2Me

>  <m_abbr>  (248) 
D_Trp_2Me

>  <m_type>  (248) 
aa

>  <m_subtype>  (248) 
non-natural

>  <m_Rgroups>  (248) 
H,OH,None,None

>  <m_RgroupIdx>  (248) 
15,16,None,None

>  <m_attachmentPointIdx>  (248) 
12,13,None,None

>  <natAnalog>  (248) 
W

>  <pdbName>  (248) 
D5D

$$$$

     RDKit          2D

 15 15  0  0  0  0  0  0  0  0999 V2000
   -0.7145    3.7125    0.0000 O   0  0  0  0  0  0  0  0  0  0  0  0
    0.0000    3.3000    0.0000 C   0  0  0  0  0  0  0  0  0  0  0  0
    0.7145    3.7125    0.0000 O   0  0  0  0  0  0  0  0  0  0  0  0
    0.0000    2.4750    0.0000 C   0  0  0  0  0  0  0  0  0  0  0  0
    0.7145    2.0625    0.0000 C   0  0  0  0  0  0  0  0  0  0  0  0
    0.7145    1.2375    0.0000 C   0  0  0  0  0  0  0  0  0  0  0  0
    1.4289    0.8250    0.0000 C   0  0  0  0  0  0  0  0  0  0  0  0
    1.4289    0.0000    0.0000 C   0  0  0  0  0  0  0  0  0  0  0  0
    0.7145   -0.4125    0.0000 C   0  0  0  0  0  0  0  0  0  0  0  0
    0.7145   -1.2375    0.0000 O   0  0  0  0  0  0  0  0  0  0  0  0
    0.0000    0.0000    0.0000 C   0  0  0  0  0  0  0  0  0  0  0  0
   -0.7145   -0.4125    0.0000 O   0  0  0  0  0  0  0  0  0  0  0  0
    0.0000    0.8250    0.0000 C   0  0  0  0  0  0  0  0  0  0  0  0
   -0.7145    2.0625    0.0000 N   0  0  0  0  0  0  0  0  0  0  0  0
   -0.7145    1.2375    0.0000 R#  0  0  0  0  0  0  0  0  0  0  0  0
  1  2  1  0
  2  3  2  0
  4  2  1  0
  4  5  1  1
  5  6  1  0
  6  7  2  0
  7  8  1  0
  8  9  2  0
  9 10  1  0
  9 11  1  0
 11 12  1  0
 11 13  2  0
  6 13  1  0
  4 14  1  0
 14 15  1  0
M  RGP  1  15   1
V   15 *
M  END
>  <m_name>  (249) 
(2R)-2-amino-3-(3,4-dihydroxyphenyl)propanoic acid

>  <symbol>  (249) 
D_Tyr_3OH

>  <m_abbr>  (249) 
D_Tyr_3OH

>  <m_type>  (249) 
aa

>  <m_subtype>  (249) 
non-natural

>  <m_Rgroups>  (249) 
H,None,None,None

>  <m_RgroupIdx>  (249) 
14,None,None,None

>  <m_attachmentPointIdx>  (249) 
13,None,None,None

>  <natAnalog>  (249) 
Y

>  <pdbName>  (249) 
D5J

$$$$

     RDKit          2D

 15 15  0  0  0  0  0  0  0  0999 V2000
    0.0000    2.4750    0.0000 C   0  0  0  0  0  0  0  0  0  0  0  0
    0.7145    2.0625    0.0000 O   0  0  0  0  0  0  0  0  0  0  0  0
    0.7145    1.2375    0.0000 C   0  0  0  0  0  0  0  0  0  0  0  0
    1.4289    0.8250    0.0000 C   0  0  0  0  0  0  0  0  0  0  0  0
    1.4289    0.0000    0.0000 C   0  0  0  0  0  0  0  0  0  0  0  0
    0.7145   -0.4125    0.0000 C   0  0  0  0  0  0  0  0  0  0  0  0
    0.7145   -1.2375    0.0000 C   0  0  0  0  0  0  0  0  0  0  0  0
    1.4289   -1.6500    0.0000 C   0  0  0  0  0  0  0  0  0  0  0  0
    1.4289   -2.4750    0.0000 N   0  0  0  0  0  0  0  0  0  0  0  0
    2.1434   -1.2375    0.0000 C   0  0  0  0  0  0  0  0  0  0  0  0
    2.1434   -0.4125    0.0000 O   0  0  0  0  0  0  0  0  0  0  0  0
    0.0000    0.0000    0.0000 C   0  0  0  0  0  0  0  0  0  0  0  0
    0.0000    0.8250    0.0000 C   0  0  0  0  0  0  0  0  0  0  0  0
    2.1434   -2.8875    0.0000 R#  0  0  0  0  0  0  0  0  0  0  0  0
    2.8579   -1.6500    0.0000 R#  0  0  0  0  0  0  0  0  0  0  0  0
  1  2  1  0
  2  3  1  0
  3  4  2  0
  4  5  1  0
  5  6  2  0
  6  7  1  0
  8  7  1  6
  8  9  1  0
  9 14  1  0
  8 10  1  0
 10 15  1  0
 10 11  2  0
  6 12  1  0
 12 13  2  0
  3 13  1  0
M  RGP  2  14   1  15   2
V   14 *
V   15 *
M  END
>  <m_name>  (250) 
(2R)-2-amino-3-(4-methoxyphenyl)propanoic acid

>  <symbol>  (250) 
D_Tyr_Me

>  <m_abbr>  (250) 
D_Tyr_Me

>  <m_type>  (250) 
aa

>  <m_subtype>  (250) 
non-natural

>  <m_Rgroups>  (250) 
H,OH,None,None

>  <m_RgroupIdx>  (250) 
13,14,None,None

>  <m_attachmentPointIdx>  (250) 
8,9,None,None

>  <natAnalog>  (250) 
Y

>  <pdbName>  (250) 
D5K

$$$$

     RDKit          2D

 10  9  0  0  0  0  0  0  0  0999 V2000
    0.5230    0.5230    0.0000 C   0  0  0  0  0  0  0  0  0  0  0  0
    1.2375    0.1105    0.0000 C   0  0  0  0  0  0  0  0  0  0  0  0
    1.2375   -0.7145    0.0000 C   0  0  0  0  0  0  0  0  0  0  0  0
    0.5230   -1.1270    0.0000 C   0  0  0  0  0  0  0  0  0  0  0  0
    1.9520   -1.1270    0.0000 C   0  0  0  0  0  0  0  0  0  0  0  0
    1.9520   -1.9520    0.0000 N   0  0  0  0  0  0  0  0  0  0  0  0
    2.6664   -0.7145    0.0000 C   0  0  0  0  0  0  0  0  0  0  0  0
    3.3809   -1.1270    0.0000 O   0  0  0  0  0  0  0  0  0  0  0  0
    2.6664   -2.3645    0.0000 R#  0  0  0  0  0  0  0  0  0  0  0  0
    2.6664    0.1105    0.0000 R#  0  0  0  0  0  0  0  0  0  0  0  0
  1  2  1  0
  2  3  1  0
  3  4  1  0
  5  3  1  0
  5  6  1  6
  6  9  1  0
  5  7  1  0
  7 10  1  0
  7  8  2  0
M  RGP  2   9   1  10   2
V    9 *
V   10 *
M  END
>  <m_name>  (251) 
(2R)-2-amino-3-methylpentanoic acid

>  <symbol>  (251) 
D_xiIle

>  <m_abbr>  (251) 
D_xiIle

>  <m_type>  (251) 
aa

>  <m_subtype>  (251) 
non-natural

>  <m_Rgroups>  (251) 
H,OH,None,None

>  <m_RgroupIdx>  (251) 
8,9,None,None

>  <m_attachmentPointIdx>  (251) 
5,6,None,None

>  <natAnalog>  (251) 
I

>  <pdbName>  (251) 
D5L

$$$$

     RDKit          2D

 14 13  0  0  0  0  0  0  0  0999 V2000
   -0.1127   -3.1046    0.0000 C   0  0  0  0  0  0  0  0  0  0  0  0
    0.6974   -2.9487    0.0000 C   0  0  0  0  0  0  0  0  0  0  0  0
    0.9675   -2.1692    0.0000 C   0  0  0  0  0  0  0  0  0  0  0  0
    1.2375   -3.5724    0.0000 N   0  0  0  0  0  0  0  0  0  0  0  0
    2.0476   -3.4164    0.0000 C   0  0  0  0  0  0  0  0  0  0  0  0
    2.5877   -4.0401    0.0000 C   0  0  0  0  0  0  0  0  0  0  0  0
    3.3979   -3.8842    0.0000 C   0  0  0  0  0  0  0  0  0  0  0  0
    3.9379   -4.5078    0.0000 C   0  0  0  0  0  0  0  0  0  0  0  0
    4.7481   -4.3519    0.0000 C   0  0  0  0  0  0  0  0  0  0  0  0
    5.2882   -4.9755    0.0000 N   0  0  0  0  0  0  0  0  0  0  0  0
    5.0181   -3.5724    0.0000 C   0  0  0  0  0  0  0  0  0  0  0  0
    5.8283   -3.4164    0.0000 O   0  0  0  0  0  0  0  0  0  0  0  0
    6.0983   -4.8196    0.0000 R#  0  0  0  0  0  0  0  0  0  0  0  0
    4.4780   -2.9487    0.0000 R#  0  0  0  0  0  0  0  0  0  0  0  0
  1  2  1  0
  2  3  1  0
  2  4  1  0
  4  5  1  0
  5  6  1  0
  6  7  1  0
  7  8  1  0
  9  8  1  1
  9 10  1  0
 10 13  1  0
  9 11  1  0
 11 14  1  0
 11 12  2  0
M  RGP  2  13   1  14   2
V   13 *
V   14 *
M  END
>  <m_name>  (252) 
(2S)-2-amino-6-[(propan-2-yl)amino]hexanoic acid

>  <symbol>  (252) 
Lys_iPr

>  <m_abbr>  (252) 
Lys_iPr

>  <m_type>  (252) 
aa

>  <m_subtype>  (252) 
non-natural

>  <m_Rgroups>  (252) 
H,OH,None,None

>  <m_RgroupIdx>  (252) 
12,13,None,None

>  <m_attachmentPointIdx>  (252) 
9,10,None,None

>  <natAnalog>  (252) 
K

>  <pdbName>  (252) 
LA5

$$$$

     RDKit          2D

  8  8  0  0  0  0  0  0  0  0999 V2000
    0.7145    2.0625    0.0000 C   0  0  0  0  0  0  0  0  0  0  0  0
    0.7145    1.2375    0.0000 C   0  0  0  0  0  0  0  0  0  0  0  0
    1.4289    0.8250    0.0000 C   0  0  0  0  0  0  0  0  0  0  0  0
    1.4289    0.0000    0.0000 C   0  0  0  0  0  0  0  0  0  0  0  0
    0.7145   -0.4125    0.0000 C   0  0  0  0  0  0  0  0  0  0  0  0
    0.0000    0.0000    0.0000 C   0  0  0  0  0  0  0  0  0  0  0  0
    0.0000    0.8250    0.0000 C   0  0  0  0  0  0  0  0  0  0  0  0
    0.0000    2.4750    0.0000 R#  0  0  0  0  0  0  0  0  0  0  0  0
  8  1  1  0
  1  2  1  0
  2  3  2  0
  3  4  1  0
  4  5  2  0
  5  6  1  0
  6  7  2  0
  2  7  1  0
M  RGP  1   8   1
V    8 *
M  END
>  <m_name>  (253) 
C-Terminal toluene

>  <symbol>  (253) 
_Bn

>  <m_abbr>  (253) 
_Bn

>  <m_type>  (253) 
cap

>  <m_subtype>  (253) 
cap

>  <m_Rgroups>  (253) 
H,None,None,None

>  <m_RgroupIdx>  (253) 
7,None,None,None

>  <m_attachmentPointIdx>  (253) 
0,None,None,None

>  <natAnalog>  (253) 
X

>  <pdbName>  (253) 
BN0

$$$$

     RDKit          2D

  9  9  0  0  0  0  0  0  0  0999 V2000
    0.0000    2.4750    0.0000 O   0  0  0  0  0  0  0  0  0  0  0  0
    0.7145    2.0625    0.0000 C   0  0  0  0  0  0  0  0  0  0  0  0
    0.7145    1.2375    0.0000 C   0  0  0  0  0  0  0  0  0  0  0  0
    1.4289    0.8250    0.0000 C   0  0  0  0  0  0  0  0  0  0  0  0
    1.4289    0.0000    0.0000 C   0  0  0  0  0  0  0  0  0  0  0  0
    0.7145   -0.4125    0.0000 C   0  0  0  0  0  0  0  0  0  0  0  0
    0.0000    0.0000    0.0000 C   0  0  0  0  0  0  0  0  0  0  0  0
    0.0000    0.8250    0.0000 C   0  0  0  0  0  0  0  0  0  0  0  0
    0.0000    3.3000    0.0000 R#  0  0  0  0  0  0  0  0  0  0  0  0
  9  1  1  0
  1  2  1  0
  2  3  1  0
  3  4  2  0
  4  5  1  0
  5  6  2  0
  6  7  1  0
  7  8  2  0
  3  8  1  0
M  RGP  1   9   1
V    9 *
M  END
>  <m_name>  (254) 
C-Terminal phenylmethanol

>  <symbol>  (254) 
_OBn

>  <m_abbr>  (254) 
_OBn

>  <m_type>  (254) 
cap

>  <m_subtype>  (254) 
cap

>  <m_Rgroups>  (254) 
H,None,None,None

>  <m_RgroupIdx>  (254) 
8,None,None,None

>  <m_attachmentPointIdx>  (254) 
0,None,None,None

>  <natAnalog>  (254) 
X

>  <pdbName>  (254) 
OBJ

$$$$

     RDKit          2D

  7  7  0  0  0  0  0  0  0  0999 V2000
    0.7145    1.2375    0.0000 C   0  0  0  0  0  0  0  0  0  0  0  0
    1.4289    0.8250    0.0000 C   0  0  0  0  0  0  0  0  0  0  0  0
    1.4289    0.0000    0.0000 C   0  0  0  0  0  0  0  0  0  0  0  0
    0.7145   -0.4125    0.0000 C   0  0  0  0  0  0  0  0  0  0  0  0
    0.0000    0.0000    0.0000 C   0  0  0  0  0  0  0  0  0  0  0  0
    0.0000    0.8250    0.0000 C   0  0  0  0  0  0  0  0  0  0  0  0
    0.7145    2.0625    0.0000 R#  0  0  0  0  0  0  0  0  0  0  0  0
  7  1  1  0
  1  2  2  0
  2  3  1  0
  3  4  2  0
  4  5  1  0
  5  6  2  0
  1  6  1  0
M  RGP  1   7   1
V    7 *
M  END
>  <m_name>  (255) 
Phenyl

>  <symbol>  (255) 
Ph

>  <m_abbr>  (255) 
Ph

>  <m_type>  (255) 
cap

>  <m_subtype>  (255) 
cap

>  <m_Rgroups>  (255) 
H,None,None,None

>  <m_RgroupIdx>  (255) 
6,None,None,None

>  <m_attachmentPointIdx>  (255) 
0,None,None,None

>  <natAnalog>  (255) 
X

>  <pdbName>  (255) 
PKH

$$$$

     RDKit          2D

  8  7  0  0  0  0  0  0  0  0999 V2000
    0.4125    2.1434    0.0000 C   0  0  0  0  0  0  0  0  0  0  0  0
    0.8250    1.4289    0.0000 C   0  0  0  0  0  0  0  0  0  0  0  0
    0.1105    1.0164    0.0000 C   0  0  0  0  0  0  0  0  0  0  0  0
    1.5395    1.8414    0.0000 C   0  0  0  0  0  0  0  0  0  0  0  0
    1.2375    0.7145    0.0000 O   0  0  0  0  0  0  0  0  0  0  0  0
    0.8250    0.0000    0.0000 C   0  0  0  0  0  0  0  0  0  0  0  0
    0.0000    0.0000    0.0000 O   0  0  0  0  0  0  0  0  0  0  0  0
    1.2375   -0.7145    0.0000 R#  0  0  0  0  0  0  0  0  0  0  0  0
  1  2  1  0
  2  3  1  0
  2  4  1  0
  2  5  1  0
  5  6  1  0
  6  8  1  0
  6  7  2  0
M  RGP  1   8   2
V    8 *
M  END
>  <m_name>  (256) 
Tert-butyloxycarbonyl

>  <symbol>  (256) 
Boc

>  <m_abbr>  (256) 
Boc

>  <m_type>  (256) 
cap

>  <m_subtype>  (256) 
cap

>  <m_Rgroups>  (256) 
None,OH,None,None

>  <m_RgroupIdx>  (256) 
None,7,None,None

>  <m_attachmentPointIdx>  (256) 
None,5,None,None

>  <natAnalog>  (256) 
X

>  <pdbName>  (256) 
BOK

$$$$

     RDKit          2D

  8  7  0  0  0  0  0  0  0  0999 V2000
    0.0000   -1.4289    0.0000 C   0  0  0  0  0  0  0  0  0  0  0  0
    0.8250   -1.4289    0.0000 C   0  0  0  0  0  0  0  0  0  0  0  0
    1.2375   -0.7145    0.0000 C   0  0  0  0  0  0  0  0  0  0  0  0
    2.0625   -0.7145    0.0000 S   0  0  0  0  0  0  0  0  0  0  0  0
    0.8250    0.0000    0.0000 C   0  0  0  0  0  0  0  0  0  0  0  0
    0.0000    0.0000    0.0000 O   0  0  0  0  0  0  0  0  0  0  0  0
    2.4750    0.0000    0.0000 R#  0  0  0  0  0  0  0  0  0  0  0  0
    1.2375    0.7145    0.0000 R#  0  0  0  0  0  0  0  0  0  0  0  0
  1  2  1  0
  3  2  1  1
  3  4  1  0
  4  7  1  0
  3  5  1  0
  5  8  1  0
  5  6  2  0
M  RGP  2   7   3   8   2
V    7 *
V    8 *
M  END
>  <m_name>  (257) 
Mercaptobutanoic acid

>  <symbol>  (257) 
Mba

>  <m_abbr>  (257) 
Mba

>  <m_type>  (257) 
cap

>  <m_subtype>  (257) 
cap

>  <m_Rgroups>  (257) 
None,OH,None,None

>  <m_RgroupIdx>  (257) 
None,7,6,None

>  <m_attachmentPointIdx>  (257) 
None,4,3,None

>  <natAnalog>  (257) 
X

>  <pdbName>  (257) 
MHP

$$$$

     RDKit          2D

  8  7  0  0  0  0  0  0  0  0999 V2000
   -0.1914    0.7145    0.0000 C   0  0  0  0  0  0  0  0  0  0  0  0
    0.5230    1.1270    0.0000 C   0  0  0  0  0  0  0  0  0  0  0  0
    1.2375    0.7145    0.0000 C   0  0  0  0  0  0  0  0  0  0  0  0
    1.9520    1.1270    0.0000 C   0  0  0  0  0  0  0  0  0  0  0  0
    1.9520    1.9520    0.0000 O   0  0  0  0  0  0  0  0  0  0  0  0
    2.6664    0.7145    0.0000 C   0  0  0  0  0  0  0  0  0  0  0  0
    2.6664   -0.1105    0.0000 O   0  0  0  0  0  0  0  0  0  0  0  0
    3.3809    1.1270    0.0000 R#  0  0  0  0  0  0  0  0  0  0  0  0
  1  2  1  0
  2  3  1  0
  4  3  1  0
  4  5  1  6
  4  6  1  0
  6  8  1  0
  6  7  2  0
M  RGP  1   8   2
V    8 *
M  END
>  <m_name>  (258) 
2-Hydroxypentanoic acid

>  <symbol>  (258) 
Hva

>  <m_abbr>  (258) 
Hva

>  <m_type>  (258) 
cap

>  <m_subtype>  (258) 
cap

>  <m_Rgroups>  (258) 
None,OH,None,None

>  <m_RgroupIdx>  (258) 
None,7,None,None

>  <m_attachmentPointIdx>  (258) 
None,5,None,None

>  <natAnalog>  (258) 
X

>  <pdbName>  (258) 
HVC

$$$$

     RDKit          2D

 10 10  0  0  0  0  0  0  0  0999 V2000
    0.0000    2.4750    0.0000 C   0  0  0  0  0  0  0  0  0  0  0  0
   -0.7145    2.0625    0.0000 O   0  0  0  0  0  0  0  0  0  0  0  0
    0.7145    2.0625    0.0000 C   0  0  0  0  0  0  0  0  0  0  0  0
    0.7145    1.2375    0.0000 C   0  0  0  0  0  0  0  0  0  0  0  0
    1.4289    0.8250    0.0000 C   0  0  0  0  0  0  0  0  0  0  0  0
    1.4289    0.0000    0.0000 C   0  0  0  0  0  0  0  0  0  0  0  0
    0.7145   -0.4125    0.0000 C   0  0  0  0  0  0  0  0  0  0  0  0
    0.0000    0.0000    0.0000 C   0  0  0  0  0  0  0  0  0  0  0  0
    0.0000    0.8250    0.0000 C   0  0  0  0  0  0  0  0  0  0  0  0
    0.0000    3.3000    0.0000 R#  0  0  0  0  0  0  0  0  0  0  0  0
 10  1  1  0
  1  2  2  0
  1  3  1  0
  3  4  1  0
  4  5  1  0
  5  6  1  0
  6  7  1  0
  7  8  1  0
  8  9  1  0
  4  9  1  0
M  RGP  1  10   2
V   10 *
M  END
>  <m_name>  (259) 
2-cyclohexylacetic acid

>  <symbol>  (259) 
deamino_Chg

>  <m_abbr>  (259) 
deamino_Chg

>  <m_type>  (259) 
cap

>  <m_subtype>  (259) 
cap

>  <m_Rgroups>  (259) 
None,OH,None,None

>  <m_RgroupIdx>  (259) 
None,9,None,None

>  <m_attachmentPointIdx>  (259) 
None,0,None,None

>  <natAnalog>  (259) 
X

>  <pdbName>  (259) 
D5P

$$$$

     RDKit          2D

 17 18  0  0  0  0  0  0  0  0999 V2000
    1.4289    0.8250    0.0000 C   0  0  0  0  0  0  0  0  0  0  0  0
    2.1434    1.2375    0.0000 O   0  0  0  0  0  0  0  0  0  0  0  0
    1.4289    0.0000    0.0000 C   0  0  0  0  0  0  0  0  0  0  0  0
    2.1434   -0.4125    0.0000 C   0  0  0  0  0  0  0  0  0  0  0  0
    2.1434   -1.2375    0.0000 C   0  0  0  0  0  0  0  0  0  0  0  0
    2.8579   -1.6500    0.0000 C   0  0  0  0  0  0  0  0  0  0  0  0
    2.8579   -2.4750    0.0000 C   0  0  0  0  0  0  0  0  0  0  0  0
    2.1434   -2.8875    0.0000 C   0  0  0  0  0  0  0  0  0  0  0  0
    1.4289   -2.4750    0.0000 C   0  0  0  0  0  0  0  0  0  0  0  0
    1.4289   -1.6500    0.0000 C   0  0  0  0  0  0  0  0  0  0  0  0
    2.8579    0.0000    0.0000 C   0  0  0  0  0  0  0  0  0  0  0  0
    2.8579    0.8250    0.0000 C   0  0  0  0  0  0  0  0  0  0  0  0
    3.5724    1.2375    0.0000 C   0  0  0  0  0  0  0  0  0  0  0  0
    4.2868    0.8250    0.0000 C   0  0  0  0  0  0  0  0  0  0  0  0
    4.2868    0.0000    0.0000 C   0  0  0  0  0  0  0  0  0  0  0  0
    3.5724   -0.4125    0.0000 C   0  0  0  0  0  0  0  0  0  0  0  0
    0.7145    1.2375    0.0000 R#  0  0  0  0  0  0  0  0  0  0  0  0
 17  1  1  0
  1  2  2  0
  1  3  1  0
  3  4  1  0
  4  5  1  0
  5  6  2  0
  6  7  1  0
  7  8  2  0
  8  9  1  0
  9 10  2  0
  5 10  1  0
  4 11  1  0
 11 12  2  0
 12 13  1  0
 13 14  2  0
 14 15  1  0
 15 16  2  0
 11 16  1  0
M  RGP  1  17   2
V   17 *
M  END
>  <m_name>  (260) 
3,3-diphenylpropanoic acid

>  <symbol>  (260) 
deamino_Dip

>  <m_abbr>  (260) 
deamino_Dip

>  <m_type>  (260) 
cap

>  <m_subtype>  (260) 
cap

>  <m_Rgroups>  (260) 
None,OH,None,None

>  <m_RgroupIdx>  (260) 
None,16,None,None

>  <m_attachmentPointIdx>  (260) 
None,0,None,None

>  <natAnalog>  (260) 
X

>  <pdbName>  (260) 
D5R

$$$$

     RDKit          2D

  8  7  0  0  0  0  0  0  0  0999 V2000
    0.4125    2.1434    0.0000 C   0  0  0  0  0  0  0  0  0  0  0  0
    0.8250    1.4289    0.0000 C   0  0  0  0  0  0  0  0  0  0  0  0
    0.1105    1.0164    0.0000 C   0  0  0  0  0  0  0  0  0  0  0  0
    1.5395    1.8414    0.0000 C   0  0  0  0  0  0  0  0  0  0  0  0
    1.2375    0.7145    0.0000 C   0  0  0  0  0  0  0  0  0  0  0  0
    0.8250    0.0000    0.0000 C   0  0  0  0  0  0  0  0  0  0  0  0
    0.0000    0.0000    0.0000 O   0  0  0  0  0  0  0  0  0  0  0  0
    1.2375   -0.7145    0.0000 R#  0  0  0  0  0  0  0  0  0  0  0  0
  1  2  1  0
  2  3  1  0
  2  4  1  0
  2  5  1  0
  5  6  1  0
  6  8  1  0
  6  7  2  0
M  RGP  1   8   2
V    8 *
M  END
>  <m_name>  (261) 
3,3-dimethylbutanoic acid

>  <symbol>  (261) 
deamino_Gly_tBu

>  <m_abbr>  (261) 
deamino_Gly_tBu

>  <m_type>  (261) 
cap

>  <m_subtype>  (261) 
cap

>  <m_Rgroups>  (261) 
None,OH,None,None

>  <m_RgroupIdx>  (261) 
None,7,None,None

>  <m_attachmentPointIdx>  (261) 
None,5,None,None

>  <natAnalog>  (261) 
G

>  <pdbName>  (261) 
D5S

$$$$

     RDKit          2D

 12 12  0  0  0  0  0  0  0  0999 V2000
    0.7145   -2.8875    0.0000 C   0  0  0  0  0  0  0  0  0  0  0  0
    0.7145   -3.7125    0.0000 O   0  0  0  0  0  0  0  0  0  0  0  0
    1.4289   -2.4750    0.0000 C   0  0  0  0  0  0  0  0  0  0  0  0
    2.1434   -2.8875    0.0000 C   0  0  0  0  0  0  0  0  0  0  0  0
    2.8579   -2.4750    0.0000 C   0  0  0  0  0  0  0  0  0  0  0  0
    3.5724   -2.8875    0.0000 C   0  0  0  0  0  0  0  0  0  0  0  0
    4.2868   -2.4750    0.0000 C   0  0  0  0  0  0  0  0  0  0  0  0
    5.0013   -2.8875    0.0000 C   0  0  0  0  0  0  0  0  0  0  0  0
    5.0013   -3.7125    0.0000 C   0  0  0  0  0  0  0  0  0  0  0  0
    4.2868   -4.1250    0.0000 C   0  0  0  0  0  0  0  0  0  0  0  0
    3.5724   -3.7125    0.0000 C   0  0  0  0  0  0  0  0  0  0  0  0
    0.0000   -2.4750    0.0000 R#  0  0  0  0  0  0  0  0  0  0  0  0
 12  1  1  0
  1  2  2  0
  1  3  1  0
  3  4  1  0
  4  5  1  0
  5  6  1  0
  6  7  2  0
  7  8  1  0
  8  9  2  0
  9 10  1  0
 10 11  2  0
  6 11  1  0
M  RGP  1  12   2
V   12 *
M  END
>  <m_name>  (262) 
4-phenylbutanoic acid

>  <symbol>  (262) 
deamino_hPhe

>  <m_abbr>  (262) 
deamino_hPhe

>  <m_type>  (262) 
cap

>  <m_subtype>  (262) 
cap

>  <m_Rgroups>  (262) 
None,OH,None,None

>  <m_RgroupIdx>  (262) 
None,11,None,None

>  <m_attachmentPointIdx>  (262) 
None,0,None,None

>  <natAnalog>  (262) 
F

>  <pdbName>  (262) 
D6B

$$$$

     RDKit          2D

 12 12  0  0  0  0  0  0  0  0999 V2000
    0.0000    2.4750    0.0000 C   0  0  0  0  0  0  0  0  0  0  0  0
    0.7145    2.0625    0.0000 O   0  0  0  0  0  0  0  0  0  0  0  0
    0.7145    1.2375    0.0000 C   0  0  0  0  0  0  0  0  0  0  0  0
    1.4289    0.8250    0.0000 C   0  0  0  0  0  0  0  0  0  0  0  0
    1.4289    0.0000    0.0000 C   0  0  0  0  0  0  0  0  0  0  0  0
    0.7145   -0.4125    0.0000 C   0  0  0  0  0  0  0  0  0  0  0  0
    0.7145   -1.2375    0.0000 C   0  0  0  0  0  0  0  0  0  0  0  0
    0.0000   -1.6500    0.0000 C   0  0  0  0  0  0  0  0  0  0  0  0
   -0.7145   -1.2375    0.0000 O   0  0  0  0  0  0  0  0  0  0  0  0
    0.0000    0.0000    0.0000 C   0  0  0  0  0  0  0  0  0  0  0  0
    0.0000    0.8250    0.0000 C   0  0  0  0  0  0  0  0  0  0  0  0
    0.0000   -2.4750    0.0000 R#  0  0  0  0  0  0  0  0  0  0  0  0
  1  2  1  0
  2  3  1  0
  3  4  2  0
  4  5  1  0
  5  6  2  0
  6  7  1  0
  7  8  1  0
  8 12  1  0
  8  9  2  0
  6 10  1  0
 10 11  2  0
  3 11  1  0
M  RGP  1  12   2
V   12 *
M  END
>  <m_name>  (263) 
2-(4-methoxyphenyl)acetic acid

>  <symbol>  (263) 
deamino_nTyr_Me

>  <m_abbr>  (263) 
deamino_nTyr_Me

>  <m_type>  (263) 
cap

>  <m_subtype>  (263) 
cap

>  <m_Rgroups>  (263) 
None,OH,None,None

>  <m_RgroupIdx>  (263) 
None,11,None,None

>  <m_attachmentPointIdx>  (263) 
None,7,None,None

>  <natAnalog>  (263) 
Y

>  <pdbName>  (263) 
D6H

$$$$

     RDKit          2D

 11 11  0  0  0  0  0  0  0  0999 V2000
    0.7145    2.0625    0.0000 Cl  0  0  0  0  0  0  0  0  0  0  0  0
    0.7145    1.2375    0.0000 C   0  0  0  0  0  0  0  0  0  0  0  0
    1.4289    0.8250    0.0000 C   0  0  0  0  0  0  0  0  0  0  0  0
    1.4289    0.0000    0.0000 C   0  0  0  0  0  0  0  0  0  0  0  0
    0.7145   -0.4125    0.0000 C   0  0  0  0  0  0  0  0  0  0  0  0
    0.7145   -1.2375    0.0000 C   0  0  0  0  0  0  0  0  0  0  0  0
    0.0000   -1.6500    0.0000 C   0  0  0  0  0  0  0  0  0  0  0  0
   -0.7145   -1.2375    0.0000 O   0  0  0  0  0  0  0  0  0  0  0  0
    0.0000    0.0000    0.0000 C   0  0  0  0  0  0  0  0  0  0  0  0
    0.0000    0.8250    0.0000 C   0  0  0  0  0  0  0  0  0  0  0  0
    0.0000   -2.4750    0.0000 R#  0  0  0  0  0  0  0  0  0  0  0  0
  1  2  1  0
  2  3  2  0
  3  4  1  0
  4  5  2  0
  5  6  1  0
  6  7  1  0
  7 11  1  0
  7  8  2  0
  5  9  1  0
  9 10  2  0
  2 10  1  0
M  RGP  1  11   2
V   11 *
M  END
>  <m_name>  (264) 
2-(4-chlorophenyl)acetic acid

>  <symbol>  (264) 
deamino_Phg_4Cl

>  <m_abbr>  (264) 
deamino_Phg_4Cl

>  <m_type>  (264) 
cap

>  <m_subtype>  (264) 
cap

>  <m_Rgroups>  (264) 
None,OH,None,None

>  <m_RgroupIdx>  (264) 
None,10,None,None

>  <m_attachmentPointIdx>  (264) 
None,6,None,None

>  <natAnalog>  (264) 
G

>  <pdbName>  (264) 
D6L

$$$$

     RDKit          2D

  8  7  0  0  0  0  0  0  0  0999 V2000
    1.2375    2.1434    0.0000 C   0  0  0  0  0  0  0  0  0  0  0  0
    0.8250    1.4289    0.0000 C   0  0  0  0  0  0  0  0  0  0  0  0
    0.0000    1.4289    0.0000 C   0  0  0  0  0  0  0  0  0  0  0  0
    1.2375    0.7145    0.0000 C   0  0  0  0  0  0  0  0  0  0  0  0
    2.0625    0.7145    0.0000 O   0  0  0  0  0  0  0  0  0  0  0  0
    0.8250    0.0000    0.0000 C   0  0  0  0  0  0  0  0  0  0  0  0
    0.0000    0.0000    0.0000 O   0  0  0  0  0  0  0  0  0  0  0  0
    1.2375   -0.7145    0.0000 R#  0  0  0  0  0  0  0  0  0  0  0  0
  1  2  1  0
  2  3  1  0
  4  2  1  0
  4  5  1  1
  4  6  1  0
  6  8  1  0
  6  7  2  0
M  RGP  1   8   2
V    8 *
M  END
>  <m_name>  (265) 
(2R)-2-hydroxy-3-methylbutanoic acid

>  <symbol>  (265) 
D_OVal

>  <m_abbr>  (265) 
D_OVal

>  <m_type>  (265) 
cap

>  <m_subtype>  (265) 
cap

>  <m_Rgroups>  (265) 
None,OH,None,None

>  <m_RgroupIdx>  (265) 
None,7,None,None

>  <m_attachmentPointIdx>  (265) 
None,5,None,None

>  <natAnalog>  (265) 
V

>  <pdbName>  (265) 
D7O

$$$$

     RDKit          2D

  9  8  0  0  0  0  0  0  0  0999 V2000
   -0.1914    0.7145    0.0000 C   0  0  0  0  0  0  0  0  0  0  0  0
    0.5230    1.1270    0.0000 C   0  0  0  0  0  0  0  0  0  0  0  0
    0.5230    1.9520    0.0000 C   0  0  0  0  0  0  0  0  0  0  0  0
    1.2375    0.7145    0.0000 C   0  0  0  0  0  0  0  0  0  0  0  0
    1.9520    1.1270    0.0000 C   0  0  0  0  0  0  0  0  0  0  0  0
    1.9520    1.9520    0.0000 O   0  0  0  0  0  0  0  0  0  0  0  0
    2.6664    0.7145    0.0000 C   0  0  0  0  0  0  0  0  0  0  0  0
    2.6664   -0.1105    0.0000 O   0  0  0  0  0  0  0  0  0  0  0  0
    3.3809    1.1270    0.0000 R#  0  0  0  0  0  0  0  0  0  0  0  0
  1  2  1  0
  2  3  1  0
  2  4  1  0
  5  4  1  0
  5  6  1  6
  5  7  1  0
  7  9  1  0
  7  8  2  0
M  RGP  1   9   2
V    9 *
M  END
>  <m_name>  (266) 
(2S)-2-hydroxy-4-methylpentanoic acid

>  <symbol>  (266) 
OLeu

>  <m_abbr>  (266) 
OLeu

>  <m_type>  (266) 
cap

>  <m_subtype>  (266) 
cap

>  <m_Rgroups>  (266) 
None,OH,None,None

>  <m_RgroupIdx>  (266) 
None,8,None,None

>  <m_attachmentPointIdx>  (266) 
None,6,None,None

>  <natAnalog>  (266) 
L

>  <pdbName>  (266) 
OLG

$$$$

     RDKit          2D

  8  8  0  0  0  0  0  0  0  0999 V2000
    0.7145    2.0625    0.0000 C   0  0  0  0  0  0  0  0  0  0  0  0
    0.7145    1.2375    0.0000 C   0  0  0  0  0  0  0  0  0  0  0  0
    1.4289    0.8250    0.0000 C   0  0  0  0  0  0  0  0  0  0  0  0
    1.4289    0.0000    0.0000 C   0  0  0  0  0  0  0  0  0  0  0  0
    0.7145   -0.4125    0.0000 C   0  0  0  0  0  0  0  0  0  0  0  0
    0.0000    0.0000    0.0000 C   0  0  0  0  0  0  0  0  0  0  0  0
    0.0000    0.8250    0.0000 C   0  0  0  0  0  0  0  0  0  0  0  0
    0.0000    2.4750    0.0000 R#  0  0  0  0  0  0  0  0  0  0  0  0
  8  1  1  0
  1  2  1  0
  2  3  2  0
  3  4  1  0
  4  5  2  0
  5  6  1  0
  6  7  2  0
  2  7  1  0
M  RGP  1   8   2
V    8 *
M  END
>  <m_name>  (267) 
N-Terminal toluene

>  <symbol>  (267) 
Bn_

>  <m_abbr>  (267) 
Bn_

>  <m_type>  (267) 
cap

>  <m_subtype>  (267) 
cap

>  <m_Rgroups>  (267) 
None,OH,None,None

>  <m_RgroupIdx>  (267) 
None,7,None,None

>  <m_attachmentPointIdx>  (267) 
None,0,None,None

>  <natAnalog>  (267) 
X

>  <pdbName>  (267) 
BN8

$$$$

     RDKit          2D

  9  9  0  0  0  0  0  0  0  0999 V2000
    0.0000    2.4750    0.0000 O   0  0  0  0  0  0  0  0  0  0  0  0
    0.7145    2.0625    0.0000 C   0  0  0  0  0  0  0  0  0  0  0  0
    0.7145    1.2375    0.0000 C   0  0  0  0  0  0  0  0  0  0  0  0
    1.4289    0.8250    0.0000 C   0  0  0  0  0  0  0  0  0  0  0  0
    1.4289    0.0000    0.0000 C   0  0  0  0  0  0  0  0  0  0  0  0
    0.7145   -0.4125    0.0000 C   0  0  0  0  0  0  0  0  0  0  0  0
    0.0000    0.0000    0.0000 C   0  0  0  0  0  0  0  0  0  0  0  0
    0.0000    0.8250    0.0000 C   0  0  0  0  0  0  0  0  0  0  0  0
    0.0000    3.3000    0.0000 R#  0  0  0  0  0  0  0  0  0  0  0  0
  9  1  1  0
  1  2  1  0
  2  3  1  0
  3  4  2  0
  4  5  1  0
  5  6  2  0
  6  7  1  0
  7  8  2  0
  3  8  1  0
M  RGP  1   9   2
V    9 *
M  END
>  <m_name>  (268) 
N-Terminal phenylmethanol

>  <symbol>  (268) 
OBn_

>  <m_abbr>  (268) 
OBn_

>  <m_type>  (268) 
cap

>  <m_subtype>  (268) 
cap

>  <m_Rgroups>  (268) 
None,OH,None,None

>  <m_RgroupIdx>  (268) 
None,8,None,None

>  <m_attachmentPointIdx>  (268) 
None,0,None,None

>  <natAnalog>  (268) 
X

>  <pdbName>  (268) 
OBK

$$$$

     RDKit          2D

 10  9  0  0  0  0  0  0  0  0999 V2000
    1.0461    1.4289    0.0000 N   0  0  0  0  0  0  0  0  0  0  0  0
    1.7605    1.8414    0.0000 C   0  0  0  0  0  0  0  0  0  0  0  0
    2.4750    1.4289    0.0000 C   0  0  0  0  0  0  0  0  0  0  0  0
    3.1895    1.8414    0.0000 C   0  0  0  0  0  0  0  0  0  0  0  0
    3.9039    1.4289    0.0000 C   0  0  0  0  0  0  0  0  0  0  0  0
    4.6184    1.8414    0.0000 C   0  0  0  0  0  0  0  0  0  0  0  0
    5.3329    1.4289    0.0000 C   0  0  0  0  0  0  0  0  0  0  0  0
    6.0474    1.8414    0.0000 O   0  0  0  0  0  0  0  0  0  0  0  0
    5.3329    0.6039    0.0000 O   0  0  0  0  0  0  0  0  0  0  0  0
    4.6184    2.6664    0.0000 R#  0  0  0  0  0  0  0  0  0  0  0  0
  1  2  1  0
  2  3  1  0
  3  4  1  0
  4  5  1  0
  5  6  1  0
  6 10  1  0
  6  7  1  0
  7  8  1  0
  7  9  2  0
M  RGP  1  10   2
V   10 *
M  END
>  <m_name>  (269) 
Deamino-Lysine

>  <symbol>  (269) 
deamino_Lys

>  <m_abbr>  (269) 
deamino_Lys

>  <m_type>  (269) 
cap

>  <m_subtype>  (269) 
cap

>  <m_Rgroups>  (269) 
None,OH,None,None

>  <m_RgroupIdx>  (269) 
None,9,None,None

>  <m_attachmentPointIdx>  (269) 
None,5,None,None

>  <natAnalog>  (269) 
K

>  <pdbName>  (269) 
D8O

$$$$

     RDKit          2D

 12 12  0  0  0  0  0  0  0  0999 V2000
    0.0000    2.4750    0.0000 C   0  0  0  0  0  0  0  0  0  0  0  0
    0.7145    2.0625    0.0000 N   0  0  0  0  0  0  0  0  0  0  0  0
    1.4289    2.4750    0.0000 C   0  0  0  0  0  0  0  0  0  0  0  0
    0.7145    1.2375    0.0000 C   0  0  0  0  0  0  0  0  0  0  0  0
    1.4289    0.8250    0.0000 C   0  0  0  0  0  0  0  0  0  0  0  0
    1.4289    0.0000    0.0000 C   0  0  0  0  0  0  0  0  0  0  0  0
    0.7145   -0.4125    0.0000 C   0  0  0  0  0  0  0  0  0  0  0  0
    0.0000    0.0000    0.0000 C   0  0  0  0  0  0  0  0  0  0  0  0
    0.0000    0.8250    0.0000 C   0  0  0  0  0  0  0  0  0  0  0  0
    0.7145   -1.2375    0.0000 C   0  0  0  0  0  0  0  0  0  0  0  0
    0.0000   -1.6500    0.0000 O   0  0  0  0  0  0  0  0  0  0  0  0
    1.4289   -1.6500    0.0000 R#  0  0  0  0  0  0  0  0  0  0  0  0
  1  2  1  0
  2  3  1  0
  2  4  1  0
  4  5  2  0
  5  6  1  0
  6  7  2  0
  7  8  1  0
  8  9  2  0
  4  9  1  0
  7 10  1  0
 10 12  1  0
 10 11  2  0
M  RGP  1  12   2
V   12 *
M  END
>  <m_name>  (270) 
4-(dimethylamino)benzoic acid

>  <symbol>  (270) 
NMe24Abz

>  <m_abbr>  (270) 
NMe24Abz

>  <m_type>  (270) 
aa

>  <m_subtype>  (270) 
non-natural

>  <m_Rgroups>  (270) 
None,OH,None,None

>  <m_RgroupIdx>  (270) 
None,11,None,None

>  <m_attachmentPointIdx>  (270) 
None,9,None,None

>  <natAnalog>  (270) 
X

>  <pdbName>  (270) 
NB3

$$$$

     RDKit          2D

 16 16  0  0  0  0  0  0  0  0999 V2000
    1.4289    2.4750    0.0000 O   0  0  0  0  0  0  0  0  0  0  0  0
    0.7145    2.0625    0.0000 N   0  0  0  0  0  0  0  0  0  0  0  0
    0.0000    2.4750    0.0000 O   0  0  0  0  0  0  0  0  0  0  0  0
    0.7145    1.2375    0.0000 C   0  0  0  0  0  0  0  0  0  0  0  0
    1.4289    0.8250    0.0000 C   0  0  0  0  0  0  0  0  0  0  0  0
    1.4289    0.0000    0.0000 C   0  0  0  0  0  0  0  0  0  0  0  0
    0.7145   -0.4125    0.0000 C   0  0  0  0  0  0  0  0  0  0  0  0
    0.0000    0.0000    0.0000 C   0  0  0  0  0  0  0  0  0  0  0  0
   -0.7145   -0.4125    0.0000 C   0  0  0  0  0  0  0  0  0  0  0  0
   -1.4289    0.0000    0.0000 C   0  0  0  0  0  0  0  0  0  0  0  0
   -2.1434   -0.4125    0.0000 N   0  0  0  0  0  0  0  0  0  0  0  0
   -1.4289    0.8250    0.0000 C   0  0  0  0  0  0  0  0  0  0  0  0
   -0.7145    1.2375    0.0000 O   0  0  0  0  0  0  0  0  0  0  0  0
    0.0000    0.8250    0.0000 C   0  0  0  0  0  0  0  0  0  0  0  0
   -2.1434   -1.2375    0.0000 R#  0  0  0  0  0  0  0  0  0  0  0  0
   -2.1434    1.2375    0.0000 R#  0  0  0  0  0  0  0  0  0  0  0  0
  1  2  1  0
  2  3  2  0
  2  4  1  0
  4  5  2  0
  5  6  1  0
  6  7  2  0
  7  8  1  0
  9  8  1  0
  9 10  2  3
 10 11  1  0
 11 15  1  0
 10 12  1  0
 12 16  1  0
 12 13  2  0
  8 14  2  0
  4 14  1  0
M  CHG  2   1  -1   2   1
M  RGP  2  15   1  16   2
V   15 *
V   16 *
M  END
>  <m_name>  (271) 
2-amino-3-(3-nitrophenyl)prop-2-enoic acid

>  <symbol>  (271) 
Phe_ab_dehydro_3NO2

>  <m_abbr>  (271) 
Phe_ab_dehydro_3NO2

>  <m_type>  (271) 
aa

>  <m_subtype>  (271) 
non-natural

>  <m_Rgroups>  (271) 
H,OH,None,None

>  <m_RgroupIdx>  (271) 
14,15,None,None

>  <m_attachmentPointIdx>  (271) 
10,11,None,None

>  <natAnalog>  (271) 
F

>  <pdbName>  (271) 
PKI

$$$$

     RDKit          2D

 13 12  0  0  0  0  0  0  0  0999 V2000
    1.0461    1.4289    0.0000 C   0  0  0  0  0  0  0  0  0  0  0  0
    1.7605    1.8414    0.0000 C   0  0  0  0  0  0  0  0  0  0  0  0
    1.7605    2.6664    0.0000 C   0  0  0  0  0  0  0  0  0  0  0  0
    2.4750    1.4289    0.0000 C   0  0  0  0  0  0  0  0  0  0  0  0
    3.1895    1.8414    0.0000 C   0  0  0  0  0  0  0  0  0  0  0  0
    3.1895    2.6664    0.0000 N   0  0  0  0  0  0  0  0  0  0  0  0
    3.9039    1.4289    0.0000 C   0  0  0  0  0  0  0  0  0  0  0  0
    3.9039    0.6039    0.0000 O   0  0  0  0  0  0  0  0  0  0  0  0
    4.6184    1.8414    0.0000 C   0  0  0  0  0  0  0  0  0  0  0  0
    5.3329    1.4289    0.0000 C   0  0  0  0  0  0  0  0  0  0  0  0
    5.3329    0.6039    0.0000 O   0  0  0  0  0  0  0  0  0  0  0  0
    3.9039    3.0789    0.0000 R#  0  0  0  0  0  0  0  0  0  0  0  0
    6.0474    1.8414    0.0000 R#  0  0  0  0  0  0  0  0  0  0  0  0
  1  2  1  0
  2  3  1  0
  2  4  1  0
  5  4  1  6
  5  6  1  0
  6 12  1  0
  5  7  1  0
  7  8  1  6
  7  9  1  0
  9 10  1  0
 10 13  1  0
 10 11  2  0
M  RGP  2  12   1  13   2
V   12 *
V   13 *
M  END
>  <m_name>  (272) 
(3S,4S)-4-amino-3-hydroxy-6-methylheptanoic acid

>  <symbol>  (272) 
Sta_3S4S

>  <m_abbr>  (272) 
Sta_3S4S

>  <m_type>  (272) 
aa

>  <m_subtype>  (272) 
non-natural

>  <m_Rgroups>  (272) 
H,OH,None,None

>  <m_RgroupIdx>  (272) 
11,12,None,None

>  <m_attachmentPointIdx>  (272) 
5,9,None,None

>  <natAnalog>  (272) 
X

>  <pdbName>  (272) 
SA4

$$$$

     RDKit          2D

  9  8  0  0  0  0  0  0  0  0999 V2000
    3.9039    0.6039    0.0000 O   0  0  0  0  0  0  0  0  0  0  0  0
    3.9039    1.4289    0.0000 C   0  0  0  0  0  0  0  0  0  0  0  0
    3.1895    1.8414    0.0000 C   0  0  0  0  0  0  0  0  0  0  0  0
    2.4750    1.4289    0.0000 N   0  0  0  0  0  0  0  0  0  0  0  0
    4.6184    1.8414    0.0000 C   0  0  0  0  0  0  0  0  0  0  0  0
    5.3329    1.4289    0.0000 C   0  0  0  0  0  0  0  0  0  0  0  0
    5.3329    0.6039    0.0000 O   0  0  0  0  0  0  0  0  0  0  0  0
    1.7605    1.8414    0.0000 R#  0  0  0  0  0  0  0  0  0  0  0  0
    6.0474    1.8414    0.0000 R#  0  0  0  0  0  0  0  0  0  0  0  0
  2  1  1  6
  2  3  1  0
  3  4  1  0
  4  8  1  0
  2  5  1  0
  5  6  1  0
  6  9  1  0
  6  7  2  0
M  RGP  2   8   1   9   2
V    8 *
V    9 *
M  END
>  <m_name>  (273) 
(3S)-4-amino-3-hydroxybutanoic acid

>  <symbol>  (273) 
Bux

>  <m_abbr>  (273) 
Bux

>  <m_type>  (273) 
aa

>  <m_subtype>  (273) 
non-natural

>  <m_Rgroups>  (273) 
H,OH,None,None

>  <m_RgroupIdx>  (273) 
7,8,None,None

>  <m_attachmentPointIdx>  (273) 
3,5,None,None

>  <natAnalog>  (273) 
X

>  <pdbName>  (273) 
BUZ

$$$$

     RDKit          2D

 14 13  0  0  0  0  0  0  0  0999 V2000
    1.6500   -1.4289    0.0000 N   0  0  0  0  0  0  0  0  0  0  0  0
    1.2375   -0.7145    0.0000 C   0  0  0  0  0  0  0  0  0  0  0  0
    1.9520   -0.3020    0.0000 C   0  0  0  0  0  0  0  0  0  0  0  0
    1.9520    0.5230    0.0000 C   0  0  0  0  0  0  0  0  0  0  0  0
    2.6664    0.9355    0.0000 C   0  0  0  0  0  0  0  0  0  0  0  0
    2.6664    1.7605    0.0000 C   0  0  0  0  0  0  0  0  0  0  0  0
    3.3809    2.1730    0.0000 C   0  0  0  0  0  0  0  0  0  0  0  0
    3.3809    2.9980    0.0000 O   0  0  0  0  0  0  0  0  0  0  0  0
    4.0954    1.7605    0.0000 O   0  0  0  0  0  0  0  0  0  0  0  0
    0.5230   -1.1270    0.0000 N   0  0  0  0  0  0  0  0  0  0  0  0
    0.8250    0.0000    0.0000 C   0  0  0  0  0  0  0  0  0  0  0  0
    0.0000    0.0000    0.0000 O   0  0  0  0  0  0  0  0  0  0  0  0
    0.5230   -1.9520    0.0000 R#  0  0  0  0  0  0  0  0  0  0  0  0
    1.2375    0.7145    0.0000 R#  0  0  0  0  0  0  0  0  0  0  0  0
  1  2  1  0
  2  3  1  0
  3  4  1  0
  4  5  1  0
  5  6  1  0
  6  7  1  0
  7  8  1  0
  7  9  2  0
  2 10  1  0
 10 13  1  0
  2 11  1  0
 11 14  1  0
 11 12  2  0
M  RGP  2  13   1  14   2
V   13 *
V   14 *
M  END
>  <m_name>  (274) 
Diaminopimelic acid

>  <symbol>  (274) 
Dpm

>  <m_abbr>  (274) 
Dpm

>  <m_type>  (274) 
aa

>  <m_subtype>  (274) 
non-natural

>  <m_Rgroups>  (274) 
H,OH,None,None

>  <m_RgroupIdx>  (274) 
12,13,None,None

>  <m_attachmentPointIdx>  (274) 
9,10,None,None

>  <natAnalog>  (274) 
X

>  <pdbName>  (274) 
D8R

$$$$

     RDKit          2D

 22 23  0  0  0  0  0  0  0  0999 V2000
    9.4280    7.8754    0.0000 N   0  0  0  0  0  0  0  0  0  0  0  0
    9.2565    7.0684    0.0000 C   0  0  0  0  0  0  0  0  0  0  0  0
    9.8695    6.5164    0.0000 N   0  0  0  0  0  0  0  0  0  0  0  0
    9.6980    5.7094    0.0000 C   0  0  0  0  0  0  0  0  0  0  0  0
    8.9134    5.4545    0.0000 N   0  0  0  0  0  0  0  0  0  0  0  0
    8.3003    6.0065    0.0000 C   0  0  0  0  0  0  0  0  0  0  0  0
    7.4798    5.9203    0.0000 N   0  0  0  0  0  0  0  0  0  0  0  0
    7.0673    5.2058    0.0000 C   0  0  0  0  0  0  0  0  0  0  0  0
    6.2423    5.2058    0.0000 C   0  0  0  0  0  0  0  0  0  0  0  0
    5.8298    5.9203    0.0000 O   0  0  0  0  0  0  0  0  0  0  0  0
    5.8298    4.4913    0.0000 N   0  0  0  0  0  0  0  0  0  0  0  0
    5.0048    4.4913    0.0000 C   0  0  0  0  0  0  0  0  0  0  0  0
    4.5923    3.7769    0.0000 C   0  0  0  0  0  0  0  0  0  0  0  0
    3.7673    3.7769    0.0000 N   0  0  0  0  0  0  0  0  0  0  0  0
    6.2423    3.7769    0.0000 C   0  0  0  0  0  0  0  0  0  0  0  0
    7.0673    3.7769    0.0000 C   0  0  0  0  0  0  0  0  0  0  0  0
    7.4798    3.0624    0.0000 O   0  0  0  0  0  0  0  0  0  0  0  0
    7.1443    6.6739    0.0000 C   0  0  0  0  0  0  0  0  0  0  0  0
    7.7574    7.2260    0.0000 N   0  0  0  0  0  0  0  0  0  0  0  0
    8.4718    6.8135    0.0000 C   0  0  0  0  0  0  0  0  0  0  0  0
    3.3548    3.0624    0.0000 R#  0  0  0  0  0  0  0  0  0  0  0  0
    7.4798    4.4913    0.0000 R#  0  0  0  0  0  0  0  0  0  0  0  0
  1  2  1  0
  2  3  2  0
  3  4  1  0
  4  5  2  0
  5  6  1  0
  6  7  1  0
  7  8  1  0
  8  9  1  0
  9 10  2  0
  9 11  1  0
 11 12  1  0
 12 13  1  0
 13 14  1  0
 14 21  1  0
 11 15  1  0
 15 16  1  0
 16 22  1  0
 16 17  2  0
  7 18  1  0
 18 19  2  0
 19 20  1  0
  2 20  1  0
  6 20  2  0
M  RGP  2  21   1  22   2
V   21 *
V   22 *
M  END
>  <m_name>  (275) 
PNA Adenine

>  <symbol>  (275) 
pnA

>  <m_abbr>  (275) 
pnA

>  <m_type>  (275) 
aa

>  <m_subtype>  (275) 
non-natural

>  <m_Rgroups>  (275) 
H,OH,None,None

>  <m_RgroupIdx>  (275) 
20,21,None,None

>  <m_attachmentPointIdx>  (275) 
13,15,None,None

>  <natAnalog>  (275) 
X

>  <pdbName>  (275) 
PKK

$$$$

     RDKit          2D

 21 21  0  0  0  0  0  0  0  0999 V2000
    2.8066    6.5704    0.0000 C   0  0  0  0  0  0  0  0  0  0  0  0
    1.9816    6.5704    0.0000 C   0  0  0  0  0  0  0  0  0  0  0  0
    1.5691    5.8559    0.0000 C   0  0  0  0  0  0  0  0  0  0  0  0
    0.7441    5.8559    0.0000 N   0  0  0  0  0  0  0  0  0  0  0  0
    0.3316    5.1414    0.0000 C   0  0  0  0  0  0  0  0  0  0  0  0
   -0.4934    5.1414    0.0000 C   0  0  0  0  0  0  0  0  0  0  0  0
   -0.9059    5.8559    0.0000 O   0  0  0  0  0  0  0  0  0  0  0  0
   -0.9059    4.4270    0.0000 N   0  0  0  0  0  0  0  0  0  0  0  0
   -1.7309    4.4270    0.0000 C   0  0  0  0  0  0  0  0  0  0  0  0
   -2.1434    3.7125    0.0000 C   0  0  0  0  0  0  0  0  0  0  0  0
   -2.9684    3.7125    0.0000 N   0  0  0  0  0  0  0  0  0  0  0  0
   -0.4934    3.7125    0.0000 C   0  0  0  0  0  0  0  0  0  0  0  0
    0.3316    3.7125    0.0000 C   0  0  0  0  0  0  0  0  0  0  0  0
    0.7441    2.9980    0.0000 O   0  0  0  0  0  0  0  0  0  0  0  0
    0.3316    6.5704    0.0000 C   0  0  0  0  0  0  0  0  0  0  0  0
   -0.4934    6.5704    0.0000 O   0  0  0  0  0  0  0  0  0  0  0  0
    0.7441    7.2849    0.0000 N   0  0  0  0  0  0  0  0  0  0  0  0
    1.5691    7.2849    0.0000 C   0  0  0  0  0  0  0  0  0  0  0  0
    1.9816    7.9993    0.0000 O   0  0  0  0  0  0  0  0  0  0  0  0
   -3.3809    2.9980    0.0000 R#  0  0  0  0  0  0  0  0  0  0  0  0
    0.7441    4.4270    0.0000 R#  0  0  0  0  0  0  0  0  0  0  0  0
  1  2  1  0
  2  3  2  0
  3  4  1  0
  4  5  1  0
  5  6  1  0
  6  7  2  0
  6  8  1  0
  8  9  1  0
  9 10  1  0
 10 11  1  0
 11 20  1  0
  8 12  1  0
 12 13  1  0
 13 21  1  0
 13 14  2  0
  4 15  1  0
 15 16  2  0
 15 17  1  0
 17 18  1  0
  2 18  1  0
 18 19  2  0
M  RGP  2  20   1  21   2
V   20 *
V   21 *
M  END
>  <m_name>  (276) 
PNA Thymine

>  <symbol>  (276) 
pnT

>  <m_abbr>  (276) 
pnT

>  <m_type>  (276) 
aa

>  <m_subtype>  (276) 
non-natural

>  <m_Rgroups>  (276) 
H,OH,None,None

>  <m_RgroupIdx>  (276) 
19,20,None,None

>  <m_attachmentPointIdx>  (276) 
10,12,None,None

>  <natAnalog>  (276) 
X

>  <pdbName>  (276) 
PKN

$$$$

     RDKit          2D

  8  7  0  0  0  0  0  0  0  0999 V2000
    0.0000   -1.4289    0.0000 Se  0  0  0  0  0  2  0  0  0  0  0  0
    0.8250   -1.4289    0.0000 C   0  0  0  0  0  0  0  0  0  0  0  0
    1.2375   -0.7145    0.0000 C   0  0  0  0  0  0  0  0  0  0  0  0
    2.0625   -0.7145    0.0000 N   0  0  0  0  0  0  0  0  0  0  0  0
    0.8250    0.0000    0.0000 C   0  0  0  0  0  0  0  0  0  0  0  0
    0.0000    0.0000    0.0000 O   0  0  0  0  0  0  0  0  0  0  0  0
    2.4750    0.0000    0.0000 R#  0  0  0  0  0  0  0  0  0  0  0  0
    1.2375    0.7145    0.0000 R#  0  0  0  0  0  0  0  0  0  0  0  0
  1  2  1  0
  3  2  1  1
  3  4  1  0
  4  7  1  0
  3  5  1  0
  5  8  1  0
  5  6  2  0
M  RGP  2   7   1   8   2
V    7 *
V    8 *
M  END
>  <m_name>  (277) 
SelenoCysteine

>  <symbol>  (277) 
seC

>  <m_abbr>  (277) 
seC

>  <m_type>  (277) 
aa

>  <m_subtype>  (277) 
non-natural

>  <m_Rgroups>  (277) 
H,OH,None,None

>  <m_RgroupIdx>  (277) 
6,7,None,None

>  <m_attachmentPointIdx>  (277) 
3,4,None,None

>  <natAnalog>  (277) 
C

>  <pdbName>  (277) 
SEX

$$$$

     RDKit          2D

  7  6  0  0  0  0  0  0  0  0999 V2000
    1.9520   -0.3020    0.0000 C   0  0  0  0  0  0  0  0  0  0  0  0
    1.2375   -0.7145    0.0000 C   0  0  0  0  0  0  0  0  0  0  0  0
    0.5230   -1.1270    0.0000 C   0  0  0  0  0  0  0  0  0  0  0  0
    1.6500   -1.4289    0.0000 C   0  0  0  0  0  0  0  0  0  0  0  0
    2.4750   -1.4289    0.0000 O   0  0  0  0  0  0  0  0  0  0  0  0
    0.8250    0.0000    0.0000 N   0  0  0  0  0  0  0  0  0  0  0  0
    0.0000    0.0000    0.0000 R#  0  0  0  0  0  0  0  0  0  0  0  0
  1  2  1  0
  2  3  1  0
  2  4  1  0
  4  5  1  0
  2  6  1  0
  6  7  1  0
M  RGP  1   7   1
V    7 *
M  END
>  <m_name>  (278) 
2-amino-2-methylpropan-1-ol

>  <symbol>  (278) 
Aib_ol

>  <m_abbr>  (278) 
Aib_ol

>  <m_type>  (278) 
aa

>  <m_subtype>  (278) 
non-natural

>  <m_Rgroups>  (278) 
H,None,None,None

>  <m_RgroupIdx>  (278) 
6,None,None,None

>  <m_attachmentPointIdx>  (278) 
5,None,None,None

>  <natAnalog>  (278) 
X

>  <pdbName>  (278) 
AJF

$$$$

     RDKit          2D

  8  8  0  0  0  0  0  0  0  0999 V2000
   -0.1467    2.3518    0.0000 O   0  0  0  0  0  0  0  0  0  0  0  0
    0.5678    1.9393    0.0000 C   0  0  0  0  0  0  0  0  0  0  0  0
    0.5678    1.1143    0.0000 C   0  0  0  0  0  0  0  0  0  0  0  0
    1.2352    0.6294    0.0000 C   0  0  0  0  0  0  0  0  0  0  0  0
    0.9803   -0.1553    0.0000 C   0  0  0  0  0  0  0  0  0  0  0  0
    0.1553   -0.1553    0.0000 C   0  0  0  0  0  0  0  0  0  0  0  0
   -0.0997    0.6294    0.0000 N   0  0  0  0  0  0  0  0  0  0  0  0
   -0.8843    0.8843    0.0000 R#  0  0  0  0  0  0  0  0  0  0  0  0
  1  2  1  0
  3  2  1  1
  3  4  1  0
  4  5  1  0
  5  6  1  0
  6  7  1  0
  3  7  1  0
  7  8  1  0
M  RGP  1   8   1
V    8 *
M  END
>  <m_name>  (279) 
[(2R)-pyrrolidin-2-yl]methanol

>  <symbol>  (279) 
D_Pro_ol

>  <m_abbr>  (279) 
D_Pro_ol

>  <m_type>  (279) 
aa

>  <m_subtype>  (279) 
non-natural

>  <m_Rgroups>  (279) 
H,None,None,None

>  <m_RgroupIdx>  (279) 
7,None,None,None

>  <m_attachmentPointIdx>  (279) 
6,None,None,None

>  <natAnalog>  (279) 
P

>  <pdbName>  (279) 
D85

$$$$

     RDKit          2D

  9  8  0  0  0  0  0  0  0  0999 V2000
    0.5230    0.5230    0.0000 C   0  0  0  0  0  0  0  0  0  0  0  0
    1.2375    0.1105    0.0000 C   0  0  0  0  0  0  0  0  0  0  0  0
    1.9520    0.5230    0.0000 C   0  0  0  0  0  0  0  0  0  0  0  0
    1.2375   -0.7145    0.0000 C   0  0  0  0  0  0  0  0  0  0  0  0
    1.9520   -1.1270    0.0000 C   0  0  0  0  0  0  0  0  0  0  0  0
    1.9520   -1.9520    0.0000 C   0  0  0  0  0  0  0  0  0  0  0  0
    2.6664   -2.3645    0.0000 O   0  0  0  0  0  0  0  0  0  0  0  0
    2.6664   -0.7145    0.0000 N   0  0  0  0  0  0  0  0  0  0  0  0
    3.3809   -1.1270    0.0000 R#  0  0  0  0  0  0  0  0  0  0  0  0
  1  2  1  0
  2  3  1  0
  2  4  1  0
  5  4  1  6
  5  6  1  0
  6  7  1  0
  5  8  1  0
  8  9  1  0
M  RGP  1   9   1
V    9 *
M  END
>  <m_name>  (280) 
(2S)-2-amino-4-methylpentan-1-ol

>  <symbol>  (280) 
Leu_ol

>  <m_abbr>  (280) 
Leu_ol

>  <m_type>  (280) 
aa

>  <m_subtype>  (280) 
non-natural

>  <m_Rgroups>  (280) 
H,None,None,None

>  <m_RgroupIdx>  (280) 
8,None,None,None

>  <m_attachmentPointIdx>  (280) 
7,None,None,None

>  <natAnalog>  (280) 
L

>  <pdbName>  (280) 
LE0

$$$$

     RDKit          2D

 12 12  0  0  0  0  0  0  0  0999 V2000
   -0.7145    3.7125    0.0000 O   0  0  0  0  0  0  0  0  0  0  0  0
    0.0000    3.3000    0.0000 C   0  0  0  0  0  0  0  0  0  0  0  0
    0.0000    2.4750    0.0000 C   0  0  0  0  0  0  0  0  0  0  0  0
    0.7145    2.0625    0.0000 C   0  0  0  0  0  0  0  0  0  0  0  0
    0.7145    1.2375    0.0000 C   0  0  0  0  0  0  0  0  0  0  0  0
    1.4289    0.8250    0.0000 C   0  0  0  0  0  0  0  0  0  0  0  0
    1.4289    0.0000    0.0000 C   0  0  0  0  0  0  0  0  0  0  0  0
    0.7145   -0.4125    0.0000 C   0  0  0  0  0  0  0  0  0  0  0  0
    0.0000    0.0000    0.0000 C   0  0  0  0  0  0  0  0  0  0  0  0
    0.0000    0.8250    0.0000 C   0  0  0  0  0  0  0  0  0  0  0  0
   -0.7145    2.0625    0.0000 N   0  0  0  0  0  0  0  0  0  0  0  0
   -0.7145    1.2375    0.0000 R#  0  0  0  0  0  0  0  0  0  0  0  0
  1  2  1  0
  3  2  1  6
  3  4  1  0
  4  5  1  0
  5  6  2  0
  6  7  1  0
  7  8  2  0
  8  9  1  0
  9 10  2  0
  5 10  1  0
  3 11  1  0
 11 12  1  0
M  RGP  1  12   1
V   12 *
M  END
>  <m_name>  (281) 
(2S)-2-amino-3-phenylpropan-1-ol

>  <symbol>  (281) 
Phe_ol

>  <m_abbr>  (281) 
Phe_ol

>  <m_type>  (281) 
aa

>  <m_subtype>  (281) 
non-natural

>  <m_Rgroups>  (281) 
H,None,None,None

>  <m_RgroupIdx>  (281) 
11,None,None,None

>  <m_attachmentPointIdx>  (281) 
10,None,None,None

>  <natAnalog>  (281) 
F

>  <pdbName>  (281) 
PKO

$$$$

     RDKit          2D

  8  7  0  0  0  0  0  0  0  0999 V2000
    2.4750    0.0000    0.0000 C   0  0  0  0  0  0  0  0  0  0  0  0
    2.0625    0.7145    0.0000 C   0  0  0  0  0  0  0  0  0  0  0  0
    2.4750    1.4289    0.0000 O   0  0  0  0  0  0  0  0  0  0  0  0
    1.2375    0.7145    0.0000 C   0  0  0  0  0  0  0  0  0  0  0  0
    0.8250    1.4289    0.0000 C   0  0  0  0  0  0  0  0  0  0  0  0
    0.0000    1.4289    0.0000 O   0  0  0  0  0  0  0  0  0  0  0  0
    0.8250    0.0000    0.0000 N   0  0  0  0  0  0  0  0  0  0  0  0
    0.0000    0.0000    0.0000 R#  0  0  0  0  0  0  0  0  0  0  0  0
  2  1  1  1
  2  3  1  0
  2  4  1  0
  4  5  1  1
  5  6  1  0
  4  7  1  0
  7  8  1  0
M  RGP  1   8   1
V    8 *
M  END
>  <m_name>  (282) 
(2S,3S)-2-aminobutane-1,3-diol

>  <symbol>  (282) 
Thr_ol

>  <m_abbr>  (282) 
Thr_ol

>  <m_type>  (282) 
aa

>  <m_subtype>  (282) 
non-natural

>  <m_Rgroups>  (282) 
H,None,None,None

>  <m_RgroupIdx>  (282) 
7,None,None,None

>  <m_attachmentPointIdx>  (282) 
6,None,None,None

>  <natAnalog>  (282) 
T

>  <pdbName>  (282) 
TE0

$$$$

     RDKit          2D

  5  4  0  0  0  0  0  0  0  0999 V2000
    2.0625   -0.7145    0.0000 N   0  0  0  0  0  0  0  0  0  0  0  0
    1.2375   -0.7145    0.0000 C   0  0  0  0  0  0  0  0  0  0  0  0
    0.8250    0.0000    0.0000 C   0  0  0  0  0  0  0  0  0  0  0  0
    0.0000    0.0000    0.0000 O   0  0  0  0  0  0  0  0  0  0  0  0
    2.4750   -1.4289    0.0000 R#  0  0  0  0  0  0  0  0  0  0  0  0
  5  1  1  0
  1  2  1  0
  2  3  1  0
  3  4  2  0
M  RGP  1   5   1
V    5 *
M  END
>  <m_name>  (283) 
2-aminoacetaldehyde

>  <symbol>  (283) 
Gly_al

>  <m_abbr>  (283) 
Gly_al

>  <m_type>  (283) 
aa

>  <m_subtype>  (283) 
non-natural

>  <m_Rgroups>  (283) 
H,None,None,None

>  <m_RgroupIdx>  (283) 
4,None,None,None

>  <m_attachmentPointIdx>  (283) 
0,None,None,None

>  <natAnalog>  (283) 
G

>  <pdbName>  (283) 
GCJ

$$$$

     RDKit          2D

  9  8  0  0  0  0  0  0  0  0999 V2000
    0.5230    0.5230    0.0000 C   0  0  0  0  0  0  0  0  0  0  0  0
    1.2375    0.1105    0.0000 C   0  0  0  0  0  0  0  0  0  0  0  0
    1.9520    0.5230    0.0000 C   0  0  0  0  0  0  0  0  0  0  0  0
    1.2375   -0.7145    0.0000 C   0  0  0  0  0  0  0  0  0  0  0  0
    1.9520   -1.1270    0.0000 C   0  0  0  0  0  0  0  0  0  0  0  0
    1.9520   -1.9520    0.0000 N   0  0  0  0  0  0  0  0  0  0  0  0
    2.6664   -0.7145    0.0000 C   0  0  0  0  0  0  0  0  0  0  0  0
    3.3809   -1.1270    0.0000 O   0  0  0  0  0  0  0  0  0  0  0  0
    2.6664   -2.3645    0.0000 R#  0  0  0  0  0  0  0  0  0  0  0  0
  1  2  1  0
  2  3  1  0
  2  4  1  0
  5  4  1  1
  5  6  1  0
  6  9  1  0
  5  7  1  0
  7  8  2  0
M  RGP  1   9   1
V    9 *
M  END
>  <m_name>  (284) 
(2S)-2-amino-4-methylpentanal

>  <symbol>  (284) 
Leu_al

>  <m_abbr>  (284) 
Leu_al

>  <m_type>  (284) 
aa

>  <m_subtype>  (284) 
non-natural

>  <m_Rgroups>  (284) 
H,None,None,None

>  <m_RgroupIdx>  (284) 
8,None,None,None

>  <m_attachmentPointIdx>  (284) 
5,None,None,None

>  <natAnalog>  (284) 
L

>  <pdbName>  (284) 
LE5

$$$$

     RDKit          2D

 12 12  0  0  0  0  0  0  0  0999 V2000
    0.0000    3.3000    0.0000 N   0  0  0  0  0  0  0  0  0  0  0  0
    0.0000    2.4750    0.0000 C   0  0  0  0  0  0  0  0  0  0  0  0
    0.7145    2.0625    0.0000 C   0  0  0  0  0  0  0  0  0  0  0  0
    0.7145    1.2375    0.0000 C   0  0  0  0  0  0  0  0  0  0  0  0
    1.4289    0.8250    0.0000 C   0  0  0  0  0  0  0  0  0  0  0  0
    1.4289    0.0000    0.0000 C   0  0  0  0  0  0  0  0  0  0  0  0
    0.7145   -0.4125    0.0000 C   0  0  0  0  0  0  0  0  0  0  0  0
    0.0000    0.0000    0.0000 C   0  0  0  0  0  0  0  0  0  0  0  0
    0.0000    0.8250    0.0000 C   0  0  0  0  0  0  0  0  0  0  0  0
   -0.7145    2.0625    0.0000 C   0  0  0  0  0  0  0  0  0  0  0  0
   -0.7145    1.2375    0.0000 O   0  0  0  0  0  0  0  0  0  0  0  0
   -0.7145    3.7125    0.0000 R#  0  0  0  0  0  0  0  0  0  0  0  0
 12  1  1  0
  2  1  1  0
  2  3  1  1
  3  4  1  0
  4  5  2  0
  5  6  1  0
  6  7  2  0
  7  8  1  0
  8  9  2  0
  4  9  1  0
  2 10  1  0
 10 11  2  0
M  RGP  1  12   1
V   12 *
M  END
>  <m_name>  (285) 
(2S)-2-amino-3-phenylpropanal

>  <symbol>  (285) 
Phe_al

>  <m_abbr>  (285) 
Phe_al

>  <m_type>  (285) 
aa

>  <m_subtype>  (285) 
non-natural

>  <m_Rgroups>  (285) 
H,None,None,None

>  <m_RgroupIdx>  (285) 
11,None,None,None

>  <m_attachmentPointIdx>  (285) 
0,None,None,None

>  <natAnalog>  (285) 
F

>  <pdbName>  (285) 
PKQ

$$$$

     RDKit          2D

 18 17  0  0  0  0  0  0  0  0999 V2000
   -1.4629   -2.6369    0.0000 C   0  0  0  0  0  0  0  0  0  0  0  0
   -0.6528   -2.4810    0.0000 C   0  0  0  0  0  0  0  0  0  0  0  0
   -0.1127   -3.1046    0.0000 N   0  0  0  0  0  0  0  0  0  0  0  0
    0.6974   -2.9487    0.0000 C   0  0  0  0  0  0  0  0  0  0  0  0
    1.2375   -3.5724    0.0000 N   0  0  0  0  0  0  0  0  0  0  0  0
    2.0476   -3.4164    0.0000 C   0  0  0  0  0  0  0  0  0  0  0  0
    2.5877   -4.0401    0.0000 C   0  0  0  0  0  0  0  0  0  0  0  0
    3.3979   -3.8842    0.0000 C   0  0  0  0  0  0  0  0  0  0  0  0
    3.9379   -4.5078    0.0000 C   0  0  0  0  0  0  0  0  0  0  0  0
    4.7481   -4.3519    0.0000 C   0  0  0  0  0  0  0  0  0  0  0  0
    5.2882   -4.9755    0.0000 N   0  0  0  0  0  0  0  0  0  0  0  0
    5.0181   -3.5724    0.0000 C   0  0  0  0  0  0  0  0  0  0  0  0
    5.8283   -3.4164    0.0000 O   0  0  0  0  0  0  0  0  0  0  0  0
    0.9675   -2.1692    0.0000 N   0  0  0  0  0  0  0  0  0  0  0  0
    1.7776   -2.0133    0.0000 C   0  0  0  0  0  0  0  0  0  0  0  0
    2.0476   -1.2337    0.0000 C   0  0  0  0  0  0  0  0  0  0  0  0
    6.0983   -4.8196    0.0000 R#  0  0  0  0  0  0  0  0  0  0  0  0
    4.4780   -2.9487    0.0000 R#  0  0  0  0  0  0  0  0  0  0  0  0
  1  2  1  0
  3  2  1  0
  3  4  1  0
  4  5  1  0
  5  6  1  0
  6  7  1  0
  7  8  1  0
  8  9  1  0
 10  9  1  1
 10 11  1  0
 11 17  1  0
 10 12  1  0
 12 18  1  0
 12 13  2  0
  4 14  2  3
 14 15  1  0
 15 16  1  0
M  RGP  2  17   1  18   2
V   17 *
V   18 *
M  END
>  <m_name>  (286) 
(2S)-2-amino-6-{[bis(ethylamino)methylidene]amino}hexanoic acid

>  <symbol>  (286) 
L_hArg(Et,Et)

>  <m_abbr>  (286) 
L_hArg(Et,Et)

>  <m_type>  (286) 
aa

>  <m_subtype>  (286) 
non-natural

>  <m_Rgroups>  (286) 
H,OH,None,None

>  <m_RgroupIdx>  (286) 
16,17,None,None

>  <m_attachmentPointIdx>  (286) 
10,11,None,None

>  <natAnalog>  (286) 
R

>  <pdbName>  (286) 
LHI

$$$$

     RDKit          2D

 11 10  0  0  0  0  0  0  0  0999 V2000
    0.8250   -1.4289    0.0000 C   0  0  0  0  0  0  0  0  0  0  0  0
    1.2375   -2.1434    0.0000 S   0  0  0  0  0  0  0  0  0  0  0  0
    0.8250   -2.8579    0.0000 O   0  0  0  0  0  0  0  0  0  0  0  0
    2.0625   -2.1434    0.0000 C   0  0  0  0  0  0  0  0  0  0  0  0
    2.4750   -2.8579    0.0000 C   0  0  0  0  0  0  0  0  0  0  0  0
    3.3000   -2.8579    0.0000 C   0  0  0  0  0  0  0  0  0  0  0  0
    3.7125   -3.5724    0.0000 N   0  0  0  0  0  0  0  0  0  0  0  0
    3.7125   -2.1434    0.0000 C   0  0  0  0  0  0  0  0  0  0  0  0
    4.5375   -2.1434    0.0000 O   0  0  0  0  0  0  0  0  0  0  0  0
    4.5375   -3.5724    0.0000 R#  0  0  0  0  0  0  0  0  0  0  0  0
    3.3000   -1.4289    0.0000 R#  0  0  0  0  0  0  0  0  0  0  0  0
  1  2  1  0
  3  2  1  0
  2  4  1  0
  4  5  1  0
  6  5  1  1
  6  7  1  0
  6  8  1  0
  7 10  1  0
  8 11  1  0
  8  9  2  0
M  CHG  2   2   1   3  -1
M  RGP  2  10   1  11   2
V   10 *
V   11 *
M  END
>  <m_name>  (287) 
(2S)-2-amino-4-methanesulfinylbutanoic acid

>  <symbol>  (287) 
Met_O

>  <m_abbr>  (287) 
Met_O

>  <m_type>  (287) 
aa

>  <m_subtype>  (287) 
non-natural

>  <m_Rgroups>  (287) 
H,OH,None,None

>  <m_RgroupIdx>  (287) 
9,10,None,None

>  <m_attachmentPointIdx>  (287) 
6,7,None,None

>  <natAnalog>  (287) 
M

>  <pdbName>  (287) 
MHX

$$$$

     RDKit          2D

 13 13  0  0  0  0  0  0  0  0999 V2000
    0.7145    2.0625    0.0000 O   0  0  0  0  0  0  0  0  0  0  0  0
    0.7145    1.2375    0.0000 C   0  0  0  0  0  0  0  0  0  0  0  0
    1.4289    0.8250    0.0000 C   0  0  0  0  0  0  0  0  0  0  0  0
    1.4289    0.0000    0.0000 C   0  0  0  0  0  0  0  0  0  0  0  0
    0.7145   -0.4125    0.0000 C   0  0  0  0  0  0  0  0  0  0  0  0
    0.0000    0.0000    0.0000 C   0  0  0  0  0  0  0  0  0  0  0  0
    0.0000    0.8250    0.0000 C   0  0  0  0  0  0  0  0  0  0  0  0
    0.7145   -1.2375    0.0000 C   0  0  0  0  0  0  0  0  0  0  0  0
    0.0000   -1.6500    0.0000 N   0  0  0  0  0  0  0  0  0  0  0  0
    1.4289   -1.6500    0.0000 C   0  0  0  0  0  0  0  0  0  0  0  0
    2.1434   -1.2375    0.0000 O   0  0  0  0  0  0  0  0  0  0  0  0
    0.0000   -2.4750    0.0000 R#  0  0  0  0  0  0  0  0  0  0  0  0
    1.4289   -2.4750    0.0000 R#  0  0  0  0  0  0  0  0  0  0  0  0
  1  2  1  0
  2  3  2  0
  3  4  1  0
  4  5  2  0
  5  6  1  0
  6  7  2  0
  2  7  1  0
  8  5  1  0
  8  9  1  1
  9 12  1  0
  8 10  1  0
 10 13  1  0
 10 11  2  0
M  RGP  2  12   1  13   2
V   12 *
V   13 *
M  END
>  <m_name>  (288) 
(2S)-2-amino-2-(4-hydroxyphenyl)acetic acid

>  <symbol>  (288) 
nTyr

>  <m_abbr>  (288) 
nTyr

>  <m_type>  (288) 
aa

>  <m_subtype>  (288) 
non-natural

>  <m_Rgroups>  (288) 
H,OH,None,None

>  <m_RgroupIdx>  (288) 
11,12,None,None

>  <m_attachmentPointIdx>  (288) 
8,9,None,None

>  <natAnalog>  (288) 
Y

>  <pdbName>  (288) 
NT0

$$$$

     RDKit          2D

 13 14  0  0  0  0  0  0  0  0999 V2000
    1.1387   -0.0305    0.0000 N   0  0  0  0  0  0  0  0  0  0  0  0
    1.9233   -0.2854    0.0000 C   0  0  0  0  0  0  0  0  0  0  0  0
    2.6378    0.1271    0.0000 C   0  0  0  0  0  0  0  0  0  0  0  0
    3.3523   -0.2854    0.0000 C   0  0  0  0  0  0  0  0  0  0  0  0
    3.3523   -1.1104    0.0000 C   0  0  0  0  0  0  0  0  0  0  0  0
    2.6378   -1.5229    0.0000 C   0  0  0  0  0  0  0  0  0  0  0  0
    1.9233   -1.1104    0.0000 C   0  0  0  0  0  0  0  0  0  0  0  0
    1.1387   -1.3654    0.0000 C   0  0  0  0  0  0  0  0  0  0  0  0
    0.6538   -0.6979    0.0000 C   0  0  0  0  0  0  0  0  0  0  0  0
   -0.1712   -0.6979    0.0000 C   0  0  0  0  0  0  0  0  0  0  0  0
   -0.5837    0.0165    0.0000 O   0  0  0  0  0  0  0  0  0  0  0  0
    0.8838    0.7541    0.0000 R#  0  0  0  0  0  0  0  0  0  0  0  0
   -0.5837   -1.4124    0.0000 R#  0  0  0  0  0  0  0  0  0  0  0  0
 12  1  1  0
  2  1  1  0
  2  3  1  1
  3  4  1  0
  4  5  1  0
  5  6  1  0
  7  6  1  6
  2  7  1  0
  7  8  1  0
  9  8  1  0
  9  1  1  0
  9 10  1  1
 10 13  1  0
 10 11  2  0
M  RGP  2  12   1  13   2
V   12 *
V   13 *
M  END
>  <m_name>  (289) 
(2S,3aR,7aS)-octahydro-1H-indole-2-carboxylic acid

>  <symbol>  (289) 
Oic_3aR_7aS

>  <m_abbr>  (289) 
Oic_3aR_7aS

>  <m_type>  (289) 
aa

>  <m_subtype>  (289) 
non-natural

>  <m_Rgroups>  (289) 
H,OH,None,None

>  <m_RgroupIdx>  (289) 
11,12,None,None

>  <m_attachmentPointIdx>  (289) 
0,9,None,None

>  <natAnalog>  (289) 
X

>  <pdbName>  (289) 
OIE

$$$$

     RDKit          2D

 13 14  0  0  0  0  0  0  0  0999 V2000
    1.1387   -0.0305    0.0000 N   0  0  0  0  0  0  0  0  0  0  0  0
    1.9233   -0.2854    0.0000 C   0  0  0  0  0  0  0  0  0  0  0  0
    2.6378    0.1271    0.0000 C   0  0  0  0  0  0  0  0  0  0  0  0
    3.3523   -0.2854    0.0000 C   0  0  0  0  0  0  0  0  0  0  0  0
    3.3523   -1.1104    0.0000 C   0  0  0  0  0  0  0  0  0  0  0  0
    2.6378   -1.5229    0.0000 C   0  0  0  0  0  0  0  0  0  0  0  0
    1.9233   -1.1104    0.0000 C   0  0  0  0  0  0  0  0  0  0  0  0
    1.1387   -1.3654    0.0000 C   0  0  0  0  0  0  0  0  0  0  0  0
    0.6538   -0.6979    0.0000 C   0  0  0  0  0  0  0  0  0  0  0  0
   -0.1712   -0.6979    0.0000 C   0  0  0  0  0  0  0  0  0  0  0  0
   -0.5837    0.0165    0.0000 O   0  0  0  0  0  0  0  0  0  0  0  0
    0.8838    0.7541    0.0000 R#  0  0  0  0  0  0  0  0  0  0  0  0
   -0.5837   -1.4124    0.0000 R#  0  0  0  0  0  0  0  0  0  0  0  0
 12  1  1  0
  1  2  1  0
  2  3  1  0
  3  4  1  0
  4  5  1  0
  5  6  1  0
  6  7  1  0
  2  7  1  0
  7  8  1  0
  9  8  1  0
  9  1  1  0
  9 10  1  1
 10 13  1  0
 10 11  2  0
M  RGP  2  12   1  13   2
V   12 *
V   13 *
M  END
>  <m_name>  (290) 
(2S)-octahydro-1H-indole-2-carboxylic acid

>  <symbol>  (290) 
Oic_3axi_7axi

>  <m_abbr>  (290) 
Oic_3axi_7axi

>  <m_type>  (290) 
aa

>  <m_subtype>  (290) 
non-natural

>  <m_Rgroups>  (290) 
H,OH,None,None

>  <m_RgroupIdx>  (290) 
11,12,None,None

>  <m_attachmentPointIdx>  (290) 
0,9,None,None

>  <natAnalog>  (290) 
X

>  <pdbName>  (290) 
OIF

$$$$

     RDKit          2D

 14 14  0  0  0  0  0  0  0  0999 V2000
    0.7145    2.0625    0.0000 F   0  0  0  0  0  0  0  0  0  0  0  0
    0.7145    1.2375    0.0000 C   0  0  0  0  0  0  0  0  0  0  0  0
    1.4289    0.8250    0.0000 C   0  0  0  0  0  0  0  0  0  0  0  0
    1.4289    0.0000    0.0000 C   0  0  0  0  0  0  0  0  0  0  0  0
    0.7145   -0.4125    0.0000 C   0  0  0  0  0  0  0  0  0  0  0  0
    0.0000    0.0000    0.0000 C   0  0  0  0  0  0  0  0  0  0  0  0
    0.0000    0.8250    0.0000 C   0  0  0  0  0  0  0  0  0  0  0  0
   -0.7145    1.2375    0.0000 C   0  0  0  0  0  0  0  0  0  0  0  0
   -1.4289    0.8250    0.0000 C   0  0  0  0  0  0  0  0  0  0  0  0
   -2.1434    1.2375    0.0000 N   0  0  0  0  0  0  0  0  0  0  0  0
   -1.4289    0.0000    0.0000 C   0  0  0  0  0  0  0  0  0  0  0  0
   -0.7145   -0.4125    0.0000 O   0  0  0  0  0  0  0  0  0  0  0  0
   -2.8579    0.8250    0.0000 R#  0  0  0  0  0  0  0  0  0  0  0  0
   -2.1434   -0.4125    0.0000 R#  0  0  0  0  0  0  0  0  0  0  0  0
  1  2  1  0
  2  3  2  0
  3  4  1  0
  4  5  2  0
  5  6  1  0
  6  7  2  0
  2  7  1  0
  7  8  1  0
  9  8  1  1
  9 10  1  0
 10 13  1  0
  9 11  1  0
 11 14  1  0
 11 12  2  0
M  RGP  2  13   1  14   2
V   13 *
V   14 *
M  END
>  <m_name>  (291) 
(2S)-2-amino-3-(2-fluorophenyl)propanoic acid

>  <symbol>  (291) 
Phe_2F

>  <m_abbr>  (291) 
Phe_2F

>  <m_type>  (291) 
aa

>  <m_subtype>  (291) 
non-natural

>  <m_Rgroups>  (291) 
H,OH,None,None

>  <m_RgroupIdx>  (291) 
12,13,None,None

>  <m_attachmentPointIdx>  (291) 
9,10,None,None

>  <natAnalog>  (291) 
F

>  <pdbName>  (291) 
PKW

$$$$

     RDKit          2D

 14 14  0  0  0  0  0  0  0  0999 V2000
    0.7145    2.0625    0.0000 F   0  0  0  0  0  0  0  0  0  0  0  0
    0.7145    1.2375    0.0000 C   0  0  0  0  0  0  0  0  0  0  0  0
    1.4289    0.8250    0.0000 C   0  0  0  0  0  0  0  0  0  0  0  0
    1.4289    0.0000    0.0000 C   0  0  0  0  0  0  0  0  0  0  0  0
    0.7145   -0.4125    0.0000 C   0  0  0  0  0  0  0  0  0  0  0  0
    0.0000    0.0000    0.0000 C   0  0  0  0  0  0  0  0  0  0  0  0
   -0.7145   -0.4125    0.0000 C   0  0  0  0  0  0  0  0  0  0  0  0
   -0.7145   -1.2375    0.0000 C   0  0  0  0  0  0  0  0  0  0  0  0
   -1.4289   -1.6500    0.0000 N   0  0  0  0  0  0  0  0  0  0  0  0
    0.0000   -1.6500    0.0000 C   0  0  0  0  0  0  0  0  0  0  0  0
    0.7145   -1.2375    0.0000 O   0  0  0  0  0  0  0  0  0  0  0  0
    0.0000    0.8250    0.0000 C   0  0  0  0  0  0  0  0  0  0  0  0
   -1.4289   -2.4750    0.0000 R#  0  0  0  0  0  0  0  0  0  0  0  0
    0.0000   -2.4750    0.0000 R#  0  0  0  0  0  0  0  0  0  0  0  0
  1  2  1  0
  2  3  2  0
  3  4  1  0
  4  5  2  0
  5  6  1  0
  6  7  1  0
  8  7  1  1
  8  9  1  0
  9 13  1  0
  8 10  1  0
 10 14  1  0
 10 11  2  0
  6 12  2  0
  2 12  1  0
M  RGP  2  13   1  14   2
V   13 *
V   14 *
M  END
>  <m_name>  (292) 
(2S)-2-amino-3-(3-fluorophenyl)propanoic acid

>  <symbol>  (292) 
Phe_3F

>  <m_abbr>  (292) 
Phe_3F

>  <m_type>  (292) 
aa

>  <m_subtype>  (292) 
non-natural

>  <m_Rgroups>  (292) 
H,OH,None,None

>  <m_RgroupIdx>  (292) 
12,13,None,None

>  <m_attachmentPointIdx>  (292) 
8,9,None,None

>  <natAnalog>  (292) 
F

>  <pdbName>  (292) 
PKX

$$$$

     RDKit          2D

 14 14  0  0  0  0  0  0  0  0999 V2000
    0.7145    2.0625    0.0000 F   0  0  0  0  0  0  0  0  0  0  0  0
    0.7145    1.2375    0.0000 C   0  0  0  0  0  0  0  0  0  0  0  0
    1.4289    0.8250    0.0000 C   0  0  0  0  0  0  0  0  0  0  0  0
    1.4289    0.0000    0.0000 C   0  0  0  0  0  0  0  0  0  0  0  0
    0.7145   -0.4125    0.0000 C   0  0  0  0  0  0  0  0  0  0  0  0
    0.7145   -1.2375    0.0000 C   0  0  0  0  0  0  0  0  0  0  0  0
    1.4289   -1.6500    0.0000 C   0  0  0  0  0  0  0  0  0  0  0  0
    1.4289   -2.4750    0.0000 N   0  0  0  0  0  0  0  0  0  0  0  0
    2.1434   -1.2375    0.0000 C   0  0  0  0  0  0  0  0  0  0  0  0
    2.1434   -0.4125    0.0000 O   0  0  0  0  0  0  0  0  0  0  0  0
    0.0000    0.0000    0.0000 C   0  0  0  0  0  0  0  0  0  0  0  0
    0.0000    0.8250    0.0000 C   0  0  0  0  0  0  0  0  0  0  0  0
    2.1434   -2.8875    0.0000 R#  0  0  0  0  0  0  0  0  0  0  0  0
    2.8579   -1.6500    0.0000 R#  0  0  0  0  0  0  0  0  0  0  0  0
  1  2  1  0
  2  3  2  0
  3  4  1  0
  4  5  2  0
  5  6  1  0
  7  6  1  1
  7  8  1  0
  8 13  1  0
  7  9  1  0
  9 14  1  0
  9 10  2  0
  5 11  1  0
 11 12  2  0
  2 12  1  0
M  RGP  2  13   1  14   2
V   13 *
V   14 *
M  END
>  <m_name>  (293) 
(2S)-2-amino-3-(4-fluorophenyl)propanoic acid

>  <symbol>  (293) 
Phe_4F

>  <m_abbr>  (293) 
Phe_4F

>  <m_type>  (293) 
aa

>  <m_subtype>  (293) 
non-natural

>  <m_Rgroups>  (293) 
H,OH,None,None

>  <m_RgroupIdx>  (293) 
12,13,None,None

>  <m_attachmentPointIdx>  (293) 
7,8,None,None

>  <natAnalog>  (293) 
F

>  <pdbName>  (293) 
PLN

$$$$

     RDKit          2D

 16 16  0  0  0  0  0  0  0  0999 V2000
    0.7145   -1.2375    0.0000 N   0  0  0  0  0  0  0  0  0  0  0  0
    1.4289   -1.6500    0.0000 O   0  0  0  0  0  0  0  0  0  0  0  0
    0.0000   -1.6500    0.0000 O   0  0  0  0  0  0  0  0  0  0  0  0
    0.7145   -0.4125    0.0000 C   0  0  0  0  0  0  0  0  0  0  0  0
    1.4289    0.0000    0.0000 C   0  0  0  0  0  0  0  0  0  0  0  0
    0.0000    0.0000    0.0000 C   0  0  0  0  0  0  0  0  0  0  0  0
    1.4289    0.8250    0.0000 C   0  0  0  0  0  0  0  0  0  0  0  0
    0.0000    0.8250    0.0000 C   0  0  0  0  0  0  0  0  0  0  0  0
    0.7145    1.2375    0.0000 C   0  0  0  0  0  0  0  0  0  0  0  0
    0.7145    2.0625    0.0000 C   0  0  0  0  0  0  0  0  0  0  0  0
    0.0000    2.4750    0.0000 C   0  0  0  0  0  0  0  0  0  0  0  0
    0.0000    3.3000    0.0000 N   0  0  0  0  0  0  0  0  0  0  0  0
   -0.7145    2.0625    0.0000 C   0  0  0  0  0  0  0  0  0  0  0  0
   -1.4289    2.4750    0.0000 O   0  0  0  0  0  0  0  0  0  0  0  0
   -0.7145    3.7125    0.0000 R#  0  0  0  0  0  0  0  0  0  0  0  0
   -0.7145    1.2375    0.0000 R#  0  0  0  0  0  0  0  0  0  0  0  0
  2  1  1  0
  1  3  2  0
  4  1  1  0
  5  4  2  0
  4  6  1  0
  7  5  1  0
  6  8  2  0
  9  7  2  0
  9  8  1  0
 10  9  1  0
 11 10  1  1
 11 12  1  0
 11 13  1  0
 15 12  1  0
 13 16  1  0
 13 14  2  0
M  CHG  2   1   1   2  -1
M  RGP  2  15   1  16   2
V   15 *
V   16 *
M  END
>  <m_name>  (294) 
(2S)-2-amino-3-(4-nitrophenyl)propanoic acid

>  <symbol>  (294) 
Phe_4NO2

>  <m_abbr>  (294) 
Phe_4NO2

>  <m_type>  (294) 
aa

>  <m_subtype>  (294) 
non-natural

>  <m_Rgroups>  (294) 
H,OH,None,None

>  <m_RgroupIdx>  (294) 
14,15,None,None

>  <m_attachmentPointIdx>  (294) 
11,12,None,None

>  <natAnalog>  (294) 
F

>  <pdbName>  (294) 
POE

$$$$

     RDKit          2D

 15 15  0  0  0  0  0  0  0  0999 V2000
   -0.1105    2.0625    0.0000 C   0  0  0  0  0  0  0  0  0  0  0  0
    0.7145    2.0625    0.0000 C   0  0  0  0  0  0  0  0  0  0  0  0
    1.5395    2.0625    0.0000 C   0  0  0  0  0  0  0  0  0  0  0  0
    0.7145    2.8875    0.0000 C   0  0  0  0  0  0  0  0  0  0  0  0
    0.0000    3.3000    0.0000 N   0  0  0  0  0  0  0  0  0  0  0  0
    1.4289    3.3000    0.0000 C   0  0  0  0  0  0  0  0  0  0  0  0
    2.1434    2.8875    0.0000 O   0  0  0  0  0  0  0  0  0  0  0  0
    0.7145    1.2375    0.0000 C   0  0  0  0  0  0  0  0  0  0  0  0
    1.4289    0.8250    0.0000 C   0  0  0  0  0  0  0  0  0  0  0  0
    1.4289    0.0000    0.0000 C   0  0  0  0  0  0  0  0  0  0  0  0
    0.7145   -0.4125    0.0000 C   0  0  0  0  0  0  0  0  0  0  0  0
    0.0000    0.0000    0.0000 C   0  0  0  0  0  0  0  0  0  0  0  0
    0.0000    0.8250    0.0000 C   0  0  0  0  0  0  0  0  0  0  0  0
    0.0000    4.1250    0.0000 R#  0  0  0  0  0  0  0  0  0  0  0  0
    1.4289    4.1250    0.0000 R#  0  0  0  0  0  0  0  0  0  0  0  0
  1  2  1  0
  2  3  1  0
  4  2  1  0
  4  5  1  6
  5 14  1  0
  4  6  1  0
  6 15  1  0
  6  7  2  0
  2  8  1  0
  8  9  2  0
  9 10  1  0
 10 11  2  0
 11 12  1  0
 12 13  2  0
  8 13  1  0
M  RGP  2  14   1  15   2
V   14 *
V   15 *
M  END
>  <m_name>  (295) 
(2S)-2-amino-3-methyl-3-phenylbutanoic acid

>  <symbol>  (295) 
Phe_bbdiMe

>  <m_abbr>  (295) 
Phe_bbdiMe

>  <m_type>  (295) 
aa

>  <m_subtype>  (295) 
non-natural

>  <m_Rgroups>  (295) 
H,OH,None,None

>  <m_RgroupIdx>  (295) 
13,14,None,None

>  <m_attachmentPointIdx>  (295) 
4,5,None,None

>  <natAnalog>  (295) 
F

>  <pdbName>  (295) 
PPA

$$$$

     RDKit          2D

 17 18  0  0  0  0  0  0  0  0999 V2000
    4.0668    2.3479    0.0000 O   0  0  0  0  0  0  0  0  0  0  0  0
    3.3523    1.9354    0.0000 C   0  0  0  0  0  0  0  0  0  0  0  0
    3.3523    1.1104    0.0000 C   0  0  0  0  0  0  0  0  0  0  0  0
    2.6378    0.6979    0.0000 C   0  0  0  0  0  0  0  0  0  0  0  0
    1.9233    1.1104    0.0000 C   0  0  0  0  0  0  0  0  0  0  0  0
    1.1387    0.8555    0.0000 N   0  0  0  0  0  0  0  0  0  0  0  0
    0.6538    1.5229    0.0000 C   0  0  0  0  0  0  0  0  0  0  0  0
    1.1387    2.1904    0.0000 C   0  0  0  0  0  0  0  0  0  0  0  0
    0.8838    2.9750    0.0000 C   0  0  0  0  0  0  0  0  0  0  0  0
    0.0768    3.1465    0.0000 C   0  0  0  0  0  0  0  0  0  0  0  0
   -0.1781    3.9312    0.0000 N   0  0  0  0  0  0  0  0  0  0  0  0
   -0.4752    2.5334    0.0000 C   0  0  0  0  0  0  0  0  0  0  0  0
   -0.2203    1.7488    0.0000 O   0  0  0  0  0  0  0  0  0  0  0  0
    1.9233    1.9354    0.0000 C   0  0  0  0  0  0  0  0  0  0  0  0
    2.6378    2.3479    0.0000 C   0  0  0  0  0  0  0  0  0  0  0  0
   -0.9851    4.1027    0.0000 R#  0  0  0  0  0  0  0  0  0  0  0  0
   -1.2822    2.7050    0.0000 R#  0  0  0  0  0  0  0  0  0  0  0  0
  1  2  1  0
  2  3  2  0
  3  4  1  0
  4  5  2  0
  5  6  1  0
  6  7  1  0
  7  8  2  0
  8  9  1  0
 10  9  1  1
 10 11  1  0
 11 16  1  0
 10 12  1  0
 12 17  1  0
 12 13  2  0
  8 14  1  0
  5 14  1  0
 14 15  2  0
  2 15  1  0
M  RGP  2  16   1  17   2
V   16 *
V   17 *
M  END
>  <m_name>  (296) 
(2S)-2-amino-3-(5-hydroxy-1H-indol-3-yl)propanoic acid

>  <symbol>  (296) 
Trp_5OH

>  <m_abbr>  (296) 
Trp_5OH

>  <m_type>  (296) 
aa

>  <m_subtype>  (296) 
non-natural

>  <m_Rgroups>  (296) 
H,OH,None,None

>  <m_RgroupIdx>  (296) 
15,16,None,None

>  <m_attachmentPointIdx>  (296) 
10,11,None,None

>  <natAnalog>  (296) 
W

>  <pdbName>  (296) 
TE3

$$$$

     RDKit          2D

 18 19  0  0  0  0  0  0  0  0999 V2000
    1.4358   -2.7631    0.0000 C   0  0  0  0  0  0  0  0  0  0  0  0
    0.8838   -2.1500    0.0000 O   0  0  0  0  0  0  0  0  0  0  0  0
    1.1387   -1.3654    0.0000 N   0  0  0  0  0  0  0  0  0  0  0  0
    0.6538   -0.6979    0.0000 C   0  0  0  0  0  0  0  0  0  0  0  0
    1.1387   -0.0305    0.0000 C   0  0  0  0  0  0  0  0  0  0  0  0
    0.8838    0.7541    0.0000 C   0  0  0  0  0  0  0  0  0  0  0  0
    0.0768    0.9256    0.0000 C   0  0  0  0  0  0  0  0  0  0  0  0
   -0.1781    1.7103    0.0000 N   0  0  0  0  0  0  0  0  0  0  0  0
   -0.4752    0.3126    0.0000 C   0  0  0  0  0  0  0  0  0  0  0  0
   -0.2203   -0.4721    0.0000 O   0  0  0  0  0  0  0  0  0  0  0  0
    1.9233   -0.2854    0.0000 C   0  0  0  0  0  0  0  0  0  0  0  0
    2.6378    0.1271    0.0000 C   0  0  0  0  0  0  0  0  0  0  0  0
    3.3523   -0.2854    0.0000 C   0  0  0  0  0  0  0  0  0  0  0  0
    3.3523   -1.1104    0.0000 C   0  0  0  0  0  0  0  0  0  0  0  0
    2.6378   -1.5229    0.0000 C   0  0  0  0  0  0  0  0  0  0  0  0
    1.9233   -1.1104    0.0000 C   0  0  0  0  0  0  0  0  0  0  0  0
   -0.9851    1.8818    0.0000 R#  0  0  0  0  0  0  0  0  0  0  0  0
   -1.2822    0.4841    0.0000 R#  0  0  0  0  0  0  0  0  0  0  0  0
  1  2  1  0
  2  3  1  0
  3  4  1  0
  4  5  2  0
  5  6  1  0
  7  6  1  1
  7  8  1  0
  8 17  1  0
  7  9  1  0
  9 18  1  0
  9 10  2  0
  5 11  1  0
 11 12  2  0
 12 13  1  0
 13 14  2  0
 14 15  1  0
 15 16  2  0
  3 16  1  0
 11 16  1  0
M  RGP  2  17   1  18   2
V   17 *
V   18 *
M  END
>  <m_name>  (297) 
(2S)-2-amino-3-(1-methoxy-1H-indol-3-yl)propanoic acid

>  <symbol>  (297) 
Trp_Ome

>  <m_abbr>  (297) 
Trp_Ome

>  <m_type>  (297) 
aa

>  <m_subtype>  (297) 
non-natural

>  <m_Rgroups>  (297) 
H,OH,None,None

>  <m_RgroupIdx>  (297) 
16,17,None,None

>  <m_attachmentPointIdx>  (297) 
7,8,None,None

>  <natAnalog>  (297) 
W

>  <pdbName>  (297) 
TE9

$$$$

     RDKit          2D

 16 16  0  0  0  0  0  0  0  0999 V2000
    0.7145    2.0625    0.0000 O   0  0  0  0  0  0  0  0  0  0  0  0
    0.7145    1.2375    0.0000 C   0  0  0  0  0  0  0  0  0  0  0  0
    1.4289    0.8250    0.0000 C   0  0  0  0  0  0  0  0  0  0  0  0
    2.1434    1.2375    0.0000 I   0  0  0  0  0  0  0  0  0  0  0  0
    1.4289    0.0000    0.0000 C   0  0  0  0  0  0  0  0  0  0  0  0
    0.7145   -0.4125    0.0000 C   0  0  0  0  0  0  0  0  0  0  0  0
    0.7145   -1.2375    0.0000 C   0  0  0  0  0  0  0  0  0  0  0  0
    1.4289   -1.6500    0.0000 C   0  0  0  0  0  0  0  0  0  0  0  0
    1.4289   -2.4750    0.0000 N   0  0  0  0  0  0  0  0  0  0  0  0
    2.1434   -1.2375    0.0000 C   0  0  0  0  0  0  0  0  0  0  0  0
    2.1434   -0.4125    0.0000 O   0  0  0  0  0  0  0  0  0  0  0  0
    0.0000    0.0000    0.0000 C   0  0  0  0  0  0  0  0  0  0  0  0
    0.0000    0.8250    0.0000 C   0  0  0  0  0  0  0  0  0  0  0  0
   -0.7145    1.2375    0.0000 I   0  0  0  0  0  0  0  0  0  0  0  0
    2.1434   -2.8875    0.0000 R#  0  0  0  0  0  0  0  0  0  0  0  0
    2.8579   -1.6500    0.0000 R#  0  0  0  0  0  0  0  0  0  0  0  0
  1  2  1  0
  2  3  2  0
  3  4  1  0
  3  5  1  0
  5  6  2  0
  6  7  1  0
  8  7  1  1
  8  9  1  0
  9 15  1  0
  8 10  1  0
 10 16  1  0
 10 11  2  0
  6 12  1  0
 12 13  2  0
  2 13  1  0
 13 14  1  0
M  RGP  2  15   1  16   2
V   15 *
V   16 *
M  END
>  <m_name>  (298) 
(2S)-2-amino-3-(4-hydroxy-3,5-diiodophenyl)propanoic acid

>  <symbol>  (298) 
Tyr_35diI

>  <m_abbr>  (298) 
Tyr_35diI

>  <m_type>  (298) 
aa

>  <m_subtype>  (298) 
non-natural

>  <m_Rgroups>  (298) 
H,OH,None,None

>  <m_RgroupIdx>  (298) 
14,15,None,None

>  <m_attachmentPointIdx>  (298) 
8,9,None,None

>  <natAnalog>  (298) 
Y

>  <pdbName>  (298) 
TFW

$$$$

     RDKit          2D

 15 15  0  0  0  0  0  0  0  0999 V2000
    0.7145    2.0625    0.0000 O   0  0  0  0  0  0  0  0  0  0  0  0
    0.7145    1.2375    0.0000 C   0  0  0  0  0  0  0  0  0  0  0  0
    1.4289    0.8250    0.0000 C   0  0  0  0  0  0  0  0  0  0  0  0
    1.4289    0.0000    0.0000 C   0  0  0  0  0  0  0  0  0  0  0  0
    0.7145   -0.4125    0.0000 C   0  0  0  0  0  0  0  0  0  0  0  0
    0.7145   -1.2375    0.0000 C   0  0  0  0  0  0  0  0  0  0  0  0
    1.4289   -1.6500    0.0000 C   0  0  0  0  0  0  0  0  0  0  0  0
    1.4289   -2.4750    0.0000 N   0  0  0  0  0  0  0  0  0  0  0  0
    2.1434   -1.2375    0.0000 C   0  0  0  0  0  0  0  0  0  0  0  0
    2.1434   -0.4125    0.0000 O   0  0  0  0  0  0  0  0  0  0  0  0
    0.0000    0.0000    0.0000 C   0  0  0  0  0  0  0  0  0  0  0  0
    0.0000    0.8250    0.0000 C   0  0  0  0  0  0  0  0  0  0  0  0
   -0.7145    1.2375    0.0000 O   0  0  0  0  0  0  0  0  0  0  0  0
    2.1434   -2.8875    0.0000 R#  0  0  0  0  0  0  0  0  0  0  0  0
    2.8579   -1.6500    0.0000 R#  0  0  0  0  0  0  0  0  0  0  0  0
  1  2  1  0
  2  3  2  0
  3  4  1  0
  4  5  2  0
  5  6  1  0
  7  6  1  1
  7  8  1  0
  8 14  1  0
  7  9  1  0
  9 15  1  0
  9 10  2  0
  5 11  1  0
 11 12  2  0
  2 12  1  0
 12 13  1  0
M  RGP  2  14   1  15   2
V   14 *
V   15 *
M  END
>  <m_name>  (299) 
(2S)-2-amino-3-(3,4-dihydroxyphenyl)propanoic acid

>  <symbol>  (299) 
Tyr_3OH

>  <m_abbr>  (299) 
Tyr_3OH

>  <m_type>  (299) 
aa

>  <m_subtype>  (299) 
non-natural

>  <m_Rgroups>  (299) 
H,OH,None,None

>  <m_RgroupIdx>  (299) 
13,14,None,None

>  <m_attachmentPointIdx>  (299) 
7,8,None,None

>  <natAnalog>  (299) 
Y

>  <pdbName>  (299) 
TF9

$$$$

     RDKit          2D

 15 15  0  0  0  0  0  0  0  0999 V2000
    0.0000    2.4750    0.0000 C   0  0  0  0  0  0  0  0  0  0  0  0
    0.7145    2.0625    0.0000 O   0  0  0  0  0  0  0  0  0  0  0  0
    0.7145    1.2375    0.0000 C   0  0  0  0  0  0  0  0  0  0  0  0
    1.4289    0.8250    0.0000 C   0  0  0  0  0  0  0  0  0  0  0  0
    1.4289    0.0000    0.0000 C   0  0  0  0  0  0  0  0  0  0  0  0
    0.7145   -0.4125    0.0000 C   0  0  0  0  0  0  0  0  0  0  0  0
    0.7145   -1.2375    0.0000 C   0  0  0  0  0  0  0  0  0  0  0  0
    1.4289   -1.6500    0.0000 C   0  0  0  0  0  0  0  0  0  0  0  0
    1.4289   -2.4750    0.0000 N   0  0  0  0  0  0  0  0  0  0  0  0
    2.1434   -1.2375    0.0000 C   0  0  0  0  0  0  0  0  0  0  0  0
    2.1434   -0.4125    0.0000 O   0  0  0  0  0  0  0  0  0  0  0  0
    0.0000    0.0000    0.0000 C   0  0  0  0  0  0  0  0  0  0  0  0
    0.0000    0.8250    0.0000 C   0  0  0  0  0  0  0  0  0  0  0  0
    2.1434   -2.8875    0.0000 R#  0  0  0  0  0  0  0  0  0  0  0  0
    2.8579   -1.6500    0.0000 R#  0  0  0  0  0  0  0  0  0  0  0  0
  1  2  1  0
  2  3  1  0
  3  4  2  0
  4  5  1  0
  5  6  2  0
  6  7  1  0
  8  7  1  1
  8  9  1  0
  9 14  1  0
  8 10  1  0
 10 15  1  0
 10 11  2  0
  6 12  1  0
 12 13  2  0
  3 13  1  0
M  RGP  2  14   1  15   2
V   14 *
V   15 *
M  END
>  <m_name>  (300) 
(2S)-2-amino-3-(4-methoxyphenyl)propanoic acid

>  <symbol>  (300) 
Tyr_Me

>  <m_abbr>  (300) 
Tyr_Me

>  <m_type>  (300) 
aa

>  <m_subtype>  (300) 
non-natural

>  <m_Rgroups>  (300) 
H,OH,None,None

>  <m_RgroupIdx>  (300) 
13,14,None,None

>  <m_attachmentPointIdx>  (300) 
8,9,None,None

>  <natAnalog>  (300) 
Y

>  <pdbName>  (300) 
TGI

$$$$

     RDKit          2D

 18 18  0  0  0  0  0  0  0  0999 V2000
   -0.7145    2.8875    0.0000 O   0  0  0  0  0  0  0  0  0  0  0  0
    0.0000    2.4750    0.0000 P   0  0  0  0  0  0  0  0  0  0  0  0
   -0.4125    1.7605    0.0000 O   0  0  0  0  0  0  0  0  0  0  0  0
    0.4125    3.1895    0.0000 O   0  0  0  0  0  0  0  0  0  0  0  0
    0.7145    2.0625    0.0000 O   0  0  0  0  0  0  0  0  0  0  0  0
    0.7145    1.2375    0.0000 C   0  0  0  0  0  0  0  0  0  0  0  0
    1.4289    0.8250    0.0000 C   0  0  0  0  0  0  0  0  0  0  0  0
    1.4289    0.0000    0.0000 C   0  0  0  0  0  0  0  0  0  0  0  0
    0.7145   -0.4125    0.0000 C   0  0  0  0  0  0  0  0  0  0  0  0
    0.7145   -1.2375    0.0000 C   0  0  0  0  0  0  0  0  0  0  0  0
    1.4289   -1.6500    0.0000 C   0  0  0  0  0  0  0  0  0  0  0  0
    1.4289   -2.4750    0.0000 N   0  0  0  0  0  0  0  0  0  0  0  0
    2.1434   -1.2375    0.0000 C   0  0  0  0  0  0  0  0  0  0  0  0
    2.1434   -0.4125    0.0000 O   0  0  0  0  0  0  0  0  0  0  0  0
    0.0000    0.0000    0.0000 C   0  0  0  0  0  0  0  0  0  0  0  0
    0.0000    0.8250    0.0000 C   0  0  0  0  0  0  0  0  0  0  0  0
    2.1434   -2.8875    0.0000 R#  0  0  0  0  0  0  0  0  0  0  0  0
    2.8579   -1.6500    0.0000 R#  0  0  0  0  0  0  0  0  0  0  0  0
  1  2  1  0
  2  3  1  0
  2  4  2  0
  2  5  1  0
  5  6  1  0
  6  7  2  0
  7  8  1  0
  8  9  2  0
  9 10  1  0
 11 10  1  1
 11 12  1  0
 12 17  1  0
 11 13  1  0
 13 18  1  0
 13 14  2  0
  9 15  1  0
 15 16  2  0
  6 16  1  0
M  RGP  2  17   1  18   2
V   17 *
V   18 *
M  END
>  <m_name>  (301) 
(2S)-2-amino-3-[4-(phosphonooxy)phenyl]propanoic acid

>  <symbol>  (301) 
Tyr_PO3H2

>  <m_abbr>  (301) 
Tyr_PO3H2

>  <m_type>  (301) 
aa

>  <m_subtype>  (301) 
non-natural

>  <m_Rgroups>  (301) 
H,OH,None,None

>  <m_RgroupIdx>  (301) 
16,17,None,None

>  <m_attachmentPointIdx>  (301) 
11,12,None,None

>  <natAnalog>  (301) 
Y

>  <pdbName>  (301) 
TGO

$$$$

     RDKit          2D

 10 10  0  0  0  0  0  0  0  0999 V2000
    0.5678    1.9393    0.0000 O   0  0  0  0  0  0  0  0  0  0  0  0
    0.5678    1.1143    0.0000 C   0  0  0  0  0  0  0  0  0  0  0  0
    1.2352    0.6294    0.0000 C   0  0  0  0  0  0  0  0  0  0  0  0
    0.9803   -0.1553    0.0000 C   0  0  0  0  0  0  0  0  0  0  0  0
    0.1553   -0.1553    0.0000 N   0  0  0  0  0  0  0  0  0  0  0  0
   -0.0997    0.6294    0.0000 C   0  0  0  0  0  0  0  0  0  0  0  0
    1.4652   -0.8227    0.0000 C   0  0  0  0  0  0  0  0  0  0  0  0
    1.1296   -1.5764    0.0000 O   0  0  0  0  0  0  0  0  0  0  0  0
   -0.3297   -0.8227    0.0000 R#  0  0  0  0  0  0  0  0  0  0  0  0
    2.2857   -0.7365    0.0000 R#  0  0  0  0  0  0  0  0  0  0  0  0
  1  2  1  0
  2  3  1  0
  4  3  1  0
  4  5  1  0
  5  9  1  0
  5  6  1  0
  2  6  1  0
  4  7  1  1
  7 10  1  0
  7  8  2  0
M  RGP  2   9   1  10   2
V    9 *
V   10 *
M  END
>  <m_name>  (302) 
(2S)-4-hydroxypyrrolidine-2-carboxylic acid

>  <symbol>  (302) 
xiHyp

>  <m_abbr>  (302) 
xiHyp

>  <m_type>  (302) 
aa

>  <m_subtype>  (302) 
non-natural

>  <m_Rgroups>  (302) 
H,OH,None,None

>  <m_RgroupIdx>  (302) 
8,9,None,None

>  <m_attachmentPointIdx>  (302) 
4,6,None,None

>  <natAnalog>  (302) 
P

>  <pdbName>  (302) 
XIB

$$$$

     RDKit          2D

  9  8  0  0  0  0  0  0  0  0999 V2000
    0.0000   -1.4289    0.0000 C   0  0  0  0  0  0  0  0  0  0  0  0
    0.8250   -1.4289    0.0000 C   0  0  0  0  0  0  0  0  0  0  0  0
    1.2375   -2.1434    0.0000 O   0  0  0  0  0  0  0  0  0  0  0  0
    1.2375   -0.7145    0.0000 C   0  0  0  0  0  0  0  0  0  0  0  0
    2.0625   -0.7145    0.0000 N   0  0  0  0  0  0  0  0  0  0  0  0
    0.8250    0.0000    0.0000 C   0  0  0  0  0  0  0  0  0  0  0  0
    0.0000    0.0000    0.0000 O   0  0  0  0  0  0  0  0  0  0  0  0
    2.4750    0.0000    0.0000 R#  0  0  0  0  0  0  0  0  0  0  0  0
    1.2375    0.7145    0.0000 R#  0  0  0  0  0  0  0  0  0  0  0  0
  1  2  1  0
  2  3  1  0
  4  2  1  0
  4  5  1  1
  5  8  1  0
  4  6  1  0
  6  9  1  0
  6  7  2  0
M  RGP  2   8   1   9   2
V    8 *
V    9 *
M  END
>  <m_name>  (303) 
(2S)-2-amino-3-hydroxybutanoic acid

>  <symbol>  (303) 
xiThr

>  <m_abbr>  (303) 
xiThr

>  <m_type>  (303) 
aa

>  <m_subtype>  (303) 
non-natural

>  <m_Rgroups>  (303) 
H,OH,None,None

>  <m_RgroupIdx>  (303) 
7,8,None,None

>  <m_attachmentPointIdx>  (303) 
4,5,None,None

>  <natAnalog>  (303) 
T

>  <pdbName>  (303) 
XIT

$$$$

     RDKit          2D

 12 12  0  0  0  0  0  0  0  0999 V2000
    0.0000    2.4750    0.0000 C   0  0  0  0  0  0  0  0  0  0  0  0
    0.7145    2.0625    0.0000 N   0  0  0  0  0  0  0  0  0  0  0  0
    0.7145    1.2375    0.0000 C   0  0  0  0  0  0  0  0  0  0  0  0
    1.4289    0.8250    0.0000 C   0  0  0  0  0  0  0  0  0  0  0  0
    1.4289    0.0000    0.0000 C   0  0  0  0  0  0  0  0  0  0  0  0
    0.7145   -0.4125    0.0000 C   0  0  0  0  0  0  0  0  0  0  0  0
    0.0000    0.0000    0.0000 C   0  0  0  0  0  0  0  0  0  0  0  0
    0.0000    0.8250    0.0000 C   0  0  0  0  0  0  0  0  0  0  0  0
    0.7145   -1.2375    0.0000 C   0  0  0  0  0  0  0  0  0  0  0  0
    0.0000   -1.6500    0.0000 O   0  0  0  0  0  0  0  0  0  0  0  0
    1.4289    2.4750    0.0000 R#  0  0  0  0  0  0  0  0  0  0  0  0
    1.4289   -1.6500    0.0000 R#  0  0  0  0  0  0  0  0  0  0  0  0
  1  2  1  0
  2 11  1  0
  2  3  1  0
  3  4  2  0
  4  5  1  0
  5  6  2  0
  6  7  1  0
  7  8  2  0
  3  8  1  0
  6  9  1  0
  9 12  1  0
  9 10  2  0
M  RGP  2  11   1  12   2
V   11 *
V   12 *
M  END
>  <m_name>  (304) 
4-(methylamino)benzoic acid

>  <symbol>  (304) 
NMe4Abz

>  <m_abbr>  (304) 
NMe4Abz

>  <m_type>  (304) 
aa

>  <m_subtype>  (304) 
non-natural

>  <m_Rgroups>  (304) 
H,OH,None,None

>  <m_RgroupIdx>  (304) 
10,11,None,None

>  <m_attachmentPointIdx>  (304) 
1,8,None,None

>  <natAnalog>  (304) 
X

>  <pdbName>  (304) 
NB6

$$$$

     RDKit          2D

 15 15  0  0  0  0  0  0  0  0999 V2000
    1.8414    1.7605    0.0000 C   0  0  0  0  0  0  0  0  0  0  0  0
    1.4289    2.4750    0.0000 C   0  0  0  0  0  0  0  0  0  0  0  0
    0.7145    2.0625    0.0000 C   0  0  0  0  0  0  0  0  0  0  0  0
    0.7145    1.2375    0.0000 C   0  0  0  0  0  0  0  0  0  0  0  0
    1.4289    0.8250    0.0000 C   0  0  0  0  0  0  0  0  0  0  0  0
    1.4289    0.0000    0.0000 C   0  0  0  0  0  0  0  0  0  0  0  0
    0.7145   -0.4125    0.0000 C   0  0  0  0  0  0  0  0  0  0  0  0
    0.7145   -1.2375    0.0000 O   0  0  0  0  0  0  0  0  0  0  0  0
    0.0000    0.0000    0.0000 C   0  0  0  0  0  0  0  0  0  0  0  0
    0.0000    0.8250    0.0000 C   0  0  0  0  0  0  0  0  0  0  0  0
    1.0164    3.1895    0.0000 N   0  0  0  0  0  0  0  0  0  0  0  0
    2.1434    2.8875    0.0000 C   0  0  0  0  0  0  0  0  0  0  0  0
    2.8579    2.4750    0.0000 O   0  0  0  0  0  0  0  0  0  0  0  0
    0.1914    3.1895    0.0000 R#  0  0  0  0  0  0  0  0  0  0  0  0
    2.1434    3.7125    0.0000 R#  0  0  0  0  0  0  0  0  0  0  0  0
  2  1  1  1
  2  3  1  0
  3  4  1  0
  4  5  2  0
  5  6  1  0
  6  7  2  0
  7  8  1  0
  7  9  1  0
  9 10  2  0
  4 10  1  0
  2 11  1  0
 11 14  1  0
  2 12  1  0
 12 15  1  0
 12 13  2  0
M  RGP  2  14   1  15   2
V   14 *
V   15 *
M  END
>  <m_name>  (305) 
(2S)-2-amino-3-(4-hydroxyphenyl)-2-methylpropanoic acid

>  <symbol>  (305) 
aMeTyr

>  <m_abbr>  (305) 
aMeTyr

>  <m_type>  (305) 
aa

>  <m_subtype>  (305) 
non-natural

>  <m_Rgroups>  (305) 
H,OH,None,None

>  <m_RgroupIdx>  (305) 
13,14,None,None

>  <m_attachmentPointIdx>  (305) 
10,11,None,None

>  <natAnalog>  (305) 
Y

>  <pdbName>  (305) 
AJO

$$$$

     RDKit          2D

 15 14  0  0  0  0  0  0  0  0999 V2000
    0.6430   -4.4293    0.0000 C   0  0  0  0  0  0  0  0  0  0  0  0
    1.2375   -5.0013    0.0000 C   0  0  0  0  0  0  0  0  0  0  0  0
    2.0301   -4.7725    0.0000 C   0  0  0  0  0  0  0  0  0  0  0  0
    2.2283   -3.9716    0.0000 O   0  0  0  0  0  0  0  0  0  0  0  0
    2.6246   -5.3445    0.0000 C   0  0  0  0  0  0  0  0  0  0  0  0
    3.4172   -5.1157    0.0000 C   0  0  0  0  0  0  0  0  0  0  0  0
    4.0117   -5.6877    0.0000 C   0  0  0  0  0  0  0  0  0  0  0  0
    4.8044   -5.4589    0.0000 C   0  0  0  0  0  0  0  0  0  0  0  0
    5.3988   -6.0310    0.0000 C   0  0  0  0  0  0  0  0  0  0  0  0
    6.1915   -5.8021    0.0000 C   0  0  0  0  0  0  0  0  0  0  0  0
    6.7859   -6.3742    0.0000 N   0  0  0  0  0  0  0  0  0  0  0  0
    6.3896   -5.0013    0.0000 C   0  0  0  0  0  0  0  0  0  0  0  0
    7.1823   -4.7725    0.0000 O   0  0  0  0  0  0  0  0  0  0  0  0
    7.5786   -6.1454    0.0000 R#  0  0  0  0  0  0  0  0  0  0  0  0
    5.7951   -4.4293    0.0000 R#  0  0  0  0  0  0  0  0  0  0  0  0
  1  2  1  0
  2  3  1  0
  3  4  2  0
  3  5  1  0
  5  6  1  0
  6  7  1  0
  7  8  1  0
  8  9  1  0
 10  9  1  1
 10 11  1  0
 11 14  1  0
 10 12  1  0
 12 15  1  0
 12 13  2  0
M  RGP  2  14   1  15   2
V   14 *
V   15 *
M  END
>  <m_name>  (306) 
(2S)-2-amino-8-oxodecanoic acid

>  <symbol>  (306) 
Aoda

>  <m_abbr>  (306) 
Aoda

>  <m_type>  (306) 
aa

>  <m_subtype>  (306) 
non-natural

>  <m_Rgroups>  (306) 
H,OH,None,None

>  <m_RgroupIdx>  (306) 
13,14,None,None

>  <m_attachmentPointIdx>  (306) 
10,11,None,None

>  <natAnalog>  (306) 
X

>  <pdbName>  (306) 
AO0

$$$$

     RDKit          2D

 21 22  0  0  0  0  0  0  0  0999 V2000
    1.4289    0.8250    0.0000 N   0  0  0  0  0  0  0  0  0  0  0  0
    1.4289    0.0000    0.0000 C   0  0  0  0  0  0  0  0  0  0  0  0
    2.1434   -0.4125    0.0000 C   0  0  0  0  0  0  0  0  0  0  0  0
    2.1434   -1.2375    0.0000 C   0  0  0  0  0  0  0  0  0  0  0  0
    2.8579   -1.6500    0.0000 C   0  0  0  0  0  0  0  0  0  0  0  0
    2.8579   -2.4750    0.0000 C   0  0  0  0  0  0  0  0  0  0  0  0
    2.1434   -2.8875    0.0000 C   0  0  0  0  0  0  0  0  0  0  0  0
    1.4289   -2.4750    0.0000 C   0  0  0  0  0  0  0  0  0  0  0  0
    1.4289   -1.6500    0.0000 C   0  0  0  0  0  0  0  0  0  0  0  0
    2.1434   -3.7125    0.0000 C   0  0  0  0  0  0  0  0  0  0  0  0
    2.8579   -4.1250    0.0000 O   0  0  0  0  0  0  0  0  0  0  0  0
    1.4289   -4.1250    0.0000 C   0  0  0  0  0  0  0  0  0  0  0  0
    1.4289   -4.9500    0.0000 C   0  0  0  0  0  0  0  0  0  0  0  0
    0.7145   -5.3625    0.0000 C   0  0  0  0  0  0  0  0  0  0  0  0
    0.0000   -4.9500    0.0000 C   0  0  0  0  0  0  0  0  0  0  0  0
    0.0000   -4.1250    0.0000 C   0  0  0  0  0  0  0  0  0  0  0  0
    0.7145   -3.7125    0.0000 C   0  0  0  0  0  0  0  0  0  0  0  0
    0.7145   -0.4125    0.0000 C   0  0  0  0  0  0  0  0  0  0  0  0
    0.0000    0.0000    0.0000 O   0  0  0  0  0  0  0  0  0  0  0  0
    0.7145    1.2375    0.0000 R#  0  0  0  0  0  0  0  0  0  0  0  0
    0.7145   -1.2375    0.0000 R#  0  0  0  0  0  0  0  0  0  0  0  0
 20  1  1  0
  2  1  1  0
  2  3  1  1
  3  4  1  0
  4  5  2  0
  5  6  1  0
  6  7  2  0
  7  8  1  0
  8  9  2  0
  4  9  1  0
  7 10  1  0
 10 11  2  0
 10 12  1  0
 12 13  2  0
 13 14  1  0
 14 15  2  0
 15 16  1  0
 16 17  2  0
 12 17  1  0
  2 18  1  0
 18 21  1  0
 18 19  2  0
M  RGP  2  20   1  21   2
V   20 *
V   21 *
M  END
>  <m_name>  (307) 
(2S)-2-amino-3-(4-benzoylphenyl)propanoic acid

>  <symbol>  (307) 
Bpa

>  <m_abbr>  (307) 
Bpa

>  <m_type>  (307) 
aa

>  <m_subtype>  (307) 
non-natural

>  <m_Rgroups>  (307) 
H,OH,None,None

>  <m_RgroupIdx>  (307) 
19,20,None,None

>  <m_attachmentPointIdx>  (307) 
0,17,None,None

>  <natAnalog>  (307) 
X

>  <pdbName>  (307) 
BBG

$$$$

     RDKit          2D

  9  8  0  0  0  0  0  0  0  0999 V2000
    0.5230    0.5230    0.0000 C   0  0  0  0  0  0  0  0  0  0  0  0
    1.2375    0.1105    0.0000 S   0  0  0  0  0  0  0  0  0  0  0  0
    1.2375   -0.7145    0.0000 C   0  0  0  0  0  0  0  0  0  0  0  0
    1.9520   -1.1270    0.0000 C   0  0  0  0  0  0  0  0  0  0  0  0
    1.9520   -1.9520    0.0000 N   0  0  0  0  0  0  0  0  0  0  0  0
    2.6664   -0.7145    0.0000 C   0  0  0  0  0  0  0  0  0  0  0  0
    3.3809   -1.1270    0.0000 O   0  0  0  0  0  0  0  0  0  0  0  0
    2.6664   -2.3645    0.0000 R#  0  0  0  0  0  0  0  0  0  0  0  0
    2.6664    0.1105    0.0000 R#  0  0  0  0  0  0  0  0  0  0  0  0
  1  2  1  0
  2  3  1  0
  4  3  1  1
  4  5  1  0
  5  8  1  0
  4  6  1  0
  6  9  1  0
  6  7  2  0
M  RGP  2   8   1   9   2
V    8 *
V    9 *
M  END
>  <m_name>  (308) 
(2R)-2-amino-3-(methylsulfanyl)propanoic acid

>  <symbol>  (308) 
Cys_Me

>  <m_abbr>  (308) 
Cys_Me

>  <m_type>  (308) 
aa

>  <m_subtype>  (308) 
non-natural

>  <m_Rgroups>  (308) 
H,OH,None,None

>  <m_RgroupIdx>  (308) 
7,8,None,None

>  <m_attachmentPointIdx>  (308) 
4,5,None,None

>  <natAnalog>  (308) 
C

>  <pdbName>  (308) 
CCJ

$$$$

     RDKit          2D

 19 20  0  0  0  0  0  0  0  0999 V2000
    0.7145   -0.4125    0.0000 N   0  0  0  0  0  0  0  0  0  0  0  0
    1.4289    0.0000    0.0000 C   0  0  0  0  0  0  0  0  0  0  0  0
    2.1434   -0.4125    0.0000 C   0  0  0  0  0  0  0  0  0  0  0  0
    2.1434   -1.2375    0.0000 C   0  0  0  0  0  0  0  0  0  0  0  0
    2.8579   -1.6500    0.0000 C   0  0  0  0  0  0  0  0  0  0  0  0
    2.8579   -2.4750    0.0000 C   0  0  0  0  0  0  0  0  0  0  0  0
    2.1434   -2.8875    0.0000 C   0  0  0  0  0  0  0  0  0  0  0  0
    1.4289   -2.4750    0.0000 C   0  0  0  0  0  0  0  0  0  0  0  0
    1.4289   -1.6500    0.0000 C   0  0  0  0  0  0  0  0  0  0  0  0
    2.8579    0.0000    0.0000 C   0  0  0  0  0  0  0  0  0  0  0  0
    2.8579    0.8250    0.0000 C   0  0  0  0  0  0  0  0  0  0  0  0
    3.5724    1.2375    0.0000 C   0  0  0  0  0  0  0  0  0  0  0  0
    4.2868    0.8250    0.0000 C   0  0  0  0  0  0  0  0  0  0  0  0
    4.2868    0.0000    0.0000 C   0  0  0  0  0  0  0  0  0  0  0  0
    3.5724   -0.4125    0.0000 C   0  0  0  0  0  0  0  0  0  0  0  0
    1.4289    0.8250    0.0000 C   0  0  0  0  0  0  0  0  0  0  0  0
    2.1434    1.2375    0.0000 O   0  0  0  0  0  0  0  0  0  0  0  0
    0.0000    0.0000    0.0000 R#  0  0  0  0  0  0  0  0  0  0  0  0
    0.7145    1.2375    0.0000 R#  0  0  0  0  0  0  0  0  0  0  0  0
 18  1  1  0
  2  1  1  6
  2  3  1  0
  3  4  1  0
  4  5  2  0
  5  6  1  0
  6  7  2  0
  7  8  1  0
  8  9  2  0
  4  9  1  0
  3 10  1  0
 10 11  2  0
 11 12  1  0
 12 13  2  0
 13 14  1  0
 14 15  2  0
 10 15  1  0
  2 16  1  0
 16 19  1  0
 16 17  2  0
M  RGP  2  18   1  19   2
V   18 *
V   19 *
M  END
>  <m_name>  (309) 
(2S)-2-amino-3,3-diphenylpropanoic acid

>  <symbol>  (309) 
Dip

>  <m_abbr>  (309) 
Dip

>  <m_type>  (309) 
aa

>  <m_subtype>  (309) 
non-natural

>  <m_Rgroups>  (309) 
H,OH,None,None

>  <m_RgroupIdx>  (309) 
17,18,None,None

>  <m_attachmentPointIdx>  (309) 
0,15,None,None

>  <natAnalog>  (309) 
X

>  <pdbName>  (309) 
D9E

$$$$

     RDKit          2D

 14 13  0  0  0  0  0  0  0  0999 V2000
   -0.1127   -3.1046    0.0000 N   0  0  0  0  0  0  0  0  0  0  0  0
    0.6974   -2.9487    0.0000 C   0  0  0  0  0  0  0  0  0  0  0  0
    0.9675   -2.1692    0.0000 N   0  0  0  0  0  0  0  0  0  0  0  0
    1.2375   -3.5724    0.0000 N   0  0  0  0  0  0  0  0  0  0  0  0
    2.0476   -3.4164    0.0000 C   0  0  0  0  0  0  0  0  0  0  0  0
    2.5877   -4.0401    0.0000 C   0  0  0  0  0  0  0  0  0  0  0  0
    3.3979   -3.8842    0.0000 C   0  0  0  0  0  0  0  0  0  0  0  0
    3.9379   -4.5078    0.0000 C   0  0  0  0  0  0  0  0  0  0  0  0
    4.7481   -4.3519    0.0000 C   0  0  0  0  0  0  0  0  0  0  0  0
    5.2882   -4.9755    0.0000 N   0  0  0  0  0  0  0  0  0  0  0  0
    5.0181   -3.5724    0.0000 C   0  0  0  0  0  0  0  0  0  0  0  0
    5.8283   -3.4164    0.0000 O   0  0  0  0  0  0  0  0  0  0  0  0
    6.0983   -4.8196    0.0000 R#  0  0  0  0  0  0  0  0  0  0  0  0
    4.4780   -2.9487    0.0000 R#  0  0  0  0  0  0  0  0  0  0  0  0
  1  2  1  0
  2  3  1  0
  2  4  1  0
  4  5  1  0
  5  6  1  0
  6  7  1  0
  7  8  1  0
  9  8  1  1
  9 10  1  0
 10 13  1  0
  9 11  1  0
 11 14  1  0
 11 12  2  0
M  RGP  2  13   1  14   2
V   13 *
V   14 *
M  END
>  <m_name>  (310) 
(2S)-2-amino-6-[(diaminomethyl)amino]hexanoic acid

>  <symbol>  (310) 
hArg

>  <m_abbr>  (310) 
hArg

>  <m_type>  (310) 
aa

>  <m_subtype>  (310) 
non-natural

>  <m_Rgroups>  (310) 
H,OH,None,None

>  <m_RgroupIdx>  (310) 
12,13,None,None

>  <m_attachmentPointIdx>  (310) 
9,10,None,None

>  <natAnalog>  (310) 
R

>  <pdbName>  (310) 
HA4

$$$$

     RDKit          2D

 19 20  0  0  0  0  0  0  0  0999 V2000
    1.3222    0.7634    0.0000 N   0  0  0  0  0  0  0  0  0  0  0  0
    1.3222   -0.0616    0.0000 C   0  0  0  0  0  0  0  0  0  0  0  0
    2.0367   -0.4741    0.0000 C   0  0  0  0  0  0  0  0  0  0  0  0
    2.0367   -1.2991    0.0000 C   0  0  0  0  0  0  0  0  0  0  0  0
    2.7041   -1.7840    0.0000 C   0  0  0  0  0  0  0  0  0  0  0  0
    2.4492   -2.5687    0.0000 N   0  0  0  0  0  0  0  0  0  0  0  0
    2.9341   -3.2361    0.0000 C   0  0  0  0  0  0  0  0  0  0  0  0
    2.5986   -3.9898    0.0000 C   0  0  0  0  0  0  0  0  0  0  0  0
    3.0835   -4.6572    0.0000 C   0  0  0  0  0  0  0  0  0  0  0  0
    2.7479   -5.4109    0.0000 C   0  0  0  0  0  0  0  0  0  0  0  0
    1.9275   -5.4971    0.0000 C   0  0  0  0  0  0  0  0  0  0  0  0
    1.4425   -4.8297    0.0000 C   0  0  0  0  0  0  0  0  0  0  0  0
    1.7781   -4.0760    0.0000 C   0  0  0  0  0  0  0  0  0  0  0  0
    1.6242   -2.5687    0.0000 C   0  0  0  0  0  0  0  0  0  0  0  0
    1.3693   -1.7840    0.0000 N   0  0  0  0  0  0  0  0  0  0  0  0
    0.6078   -0.4741    0.0000 C   0  0  0  0  0  0  0  0  0  0  0  0
   -0.1067   -0.0616    0.0000 O   0  0  0  0  0  0  0  0  0  0  0  0
    0.6078    1.1759    0.0000 R#  0  0  0  0  0  0  0  0  0  0  0  0
    0.6078   -1.2991    0.0000 R#  0  0  0  0  0  0  0  0  0  0  0  0
 18  1  1  0
  2  1  1  0
  2  3  1  1
  3  4  1  0
  4  5  2  0
  5  6  1  0
  6  7  1  0
  7  8  1  0
  8  9  2  0
  9 10  1  0
 10 11  2  0
 11 12  1  0
 12 13  2  0
  8 13  1  0
  6 14  1  0
 14 15  2  0
  4 15  1  0
  2 16  1  0
 16 19  1  0
 16 17  2  0
M  RGP  2  18   1  19   2
V   18 *
V   19 *
M  END
>  <m_name>  (311) 
(2S)-2-amino-3-(1-benzyl-1H-imidazol-4-yl)propanoic acid

>  <symbol>  (311) 
His_1Bn

>  <m_abbr>  (311) 
His_1Bn

>  <m_type>  (311) 
aa

>  <m_subtype>  (311) 
non-natural

>  <m_Rgroups>  (311) 
H,OH,None,None

>  <m_RgroupIdx>  (311) 
17,18,None,None

>  <m_attachmentPointIdx>  (311) 
0,15,None,None

>  <natAnalog>  (311) 
H

>  <pdbName>  (311) 
HIJ

$$$$

     RDKit          2D

 13 13  0  0  0  0  0  0  0  0999 V2000
    0.5678    1.9393    0.0000 C   0  0  0  0  0  0  0  0  0  0  0  0
    0.5678    1.1143    0.0000 N   0  0  0  0  0  0  0  0  0  0  0  0
    1.2352    0.6294    0.0000 C   0  0  0  0  0  0  0  0  0  0  0  0
    0.9803   -0.1553    0.0000 N   0  0  0  0  0  0  0  0  0  0  0  0
    0.1553   -0.1553    0.0000 C   0  0  0  0  0  0  0  0  0  0  0  0
   -0.0997    0.6294    0.0000 C   0  0  0  0  0  0  0  0  0  0  0  0
   -0.8843    0.8843    0.0000 C   0  0  0  0  0  0  0  0  0  0  0  0
   -1.4974    0.3323    0.0000 C   0  0  0  0  0  0  0  0  0  0  0  0
   -2.2820    0.5872    0.0000 N   0  0  0  0  0  0  0  0  0  0  0  0
   -1.3259   -0.4747    0.0000 C   0  0  0  0  0  0  0  0  0  0  0  0
   -0.5412   -0.7296    0.0000 O   0  0  0  0  0  0  0  0  0  0  0  0
   -2.8951    0.0352    0.0000 R#  0  0  0  0  0  0  0  0  0  0  0  0
   -1.9390   -1.0267    0.0000 R#  0  0  0  0  0  0  0  0  0  0  0  0
  1  2  1  0
  2  3  1  0
  3  4  2  0
  4  5  1  0
  5  6  2  0
  2  6  1  0
  6  7  1  0
  8  7  1  1
  8  9  1  0
  9 12  1  0
  8 10  1  0
 10 13  1  0
 10 11  2  0
M  RGP  2  12   1  13   2
V   12 *
V   13 *
M  END
>  <m_name>  (312) 
(2S)-2-amino-3-(1-methyl-1H-imidazol-5-yl)propanoic acid

>  <symbol>  (312) 
His_3Me

>  <m_abbr>  (312) 
His_3Me

>  <m_type>  (312) 
aa

>  <m_subtype>  (312) 
non-natural

>  <m_Rgroups>  (312) 
H,OH,None,None

>  <m_RgroupIdx>  (312) 
11,12,None,None

>  <m_attachmentPointIdx>  (312) 
8,9,None,None

>  <natAnalog>  (312) 
H

>  <pdbName>  (312) 
HIL

$$$$

     RDKit          2D

 12 11  0  0  0  0  0  0  0  0999 V2000
    0.0000   -1.4289    0.0000 N   0  0  0  0  0  0  0  0  0  0  0  0
    0.8250   -1.4289    0.0000 C   0  0  0  0  0  0  0  0  0  0  0  0
    1.2375   -2.1434    0.0000 C   0  0  0  0  0  0  0  0  0  0  0  0
    0.8250   -2.8579    0.0000 O   0  0  0  0  0  0  0  0  0  0  0  0
    2.0625   -2.1434    0.0000 C   0  0  0  0  0  0  0  0  0  0  0  0
    2.4750   -2.8579    0.0000 C   0  0  0  0  0  0  0  0  0  0  0  0
    3.3000   -2.8579    0.0000 C   0  0  0  0  0  0  0  0  0  0  0  0
    3.7125   -3.5724    0.0000 N   0  0  0  0  0  0  0  0  0  0  0  0
    3.7125   -2.1434    0.0000 C   0  0  0  0  0  0  0  0  0  0  0  0
    4.5375   -2.1434    0.0000 O   0  0  0  0  0  0  0  0  0  0  0  0
    4.5375   -3.5724    0.0000 R#  0  0  0  0  0  0  0  0  0  0  0  0
    3.3000   -1.4289    0.0000 R#  0  0  0  0  0  0  0  0  0  0  0  0
  1  2  1  0
  2  3  1  0
  3  4  1  0
  3  5  1  0
  5  6  1  0
  7  6  1  1
  7  8  1  0
  8 11  1  0
  7  9  1  0
  9 12  1  0
  9 10  2  0
M  RGP  2  11   1  12   2
V   11 *
V   12 *
M  END
>  <m_name>  (313) 
(2S)-2,6-diamino-5-hydroxyhexanoic acid

>  <symbol>  (313) 
Hyl_5xi

>  <m_abbr>  (313) 
Hyl_5xi

>  <m_type>  (313) 
aa

>  <m_subtype>  (313) 
non-natural

>  <m_Rgroups>  (313) 
H,OH,None,None

>  <m_RgroupIdx>  (313) 
10,11,None,None

>  <m_attachmentPointIdx>  (313) 
7,8,None,None

>  <natAnalog>  (313) 
K

>  <pdbName>  (313) 
HYL

$$$$

     RDKit          2D

 19 20  0  0  0  0  0  0  0  0999 V2000
    0.0000    0.8250    0.0000 N   0  0  0  0  0  0  0  0  0  0  0  0
    0.0000    0.0000    0.0000 C   0  0  0  0  0  0  0  0  0  0  0  0
    0.7145   -0.4125    0.0000 C   0  0  0  0  0  0  0  0  0  0  0  0
    0.7145   -1.2375    0.0000 C   0  0  0  0  0  0  0  0  0  0  0  0
    1.4289   -1.6500    0.0000 C   0  0  0  0  0  0  0  0  0  0  0  0
    1.4289   -2.4750    0.0000 C   0  0  0  0  0  0  0  0  0  0  0  0
    0.7145   -2.8875    0.0000 C   0  0  0  0  0  0  0  0  0  0  0  0
    0.0000   -2.4750    0.0000 C   0  0  0  0  0  0  0  0  0  0  0  0
    0.0000   -1.6500    0.0000 C   0  0  0  0  0  0  0  0  0  0  0  0
    0.7145   -3.7125    0.0000 C   0  0  0  0  0  0  0  0  0  0  0  0
    1.4289   -4.1250    0.0000 C   0  0  0  0  0  0  0  0  0  0  0  0
    1.4289   -4.9500    0.0000 C   0  0  0  0  0  0  0  0  0  0  0  0
    0.7145   -5.3625    0.0000 C   0  0  0  0  0  0  0  0  0  0  0  0
    0.0000   -4.9500    0.0000 C   0  0  0  0  0  0  0  0  0  0  0  0
    0.0000   -4.1250    0.0000 C   0  0  0  0  0  0  0  0  0  0  0  0
   -0.7145   -0.4125    0.0000 C   0  0  0  0  0  0  0  0  0  0  0  0
   -1.4289    0.0000    0.0000 O   0  0  0  0  0  0  0  0  0  0  0  0
   -0.7145    1.2375    0.0000 R#  0  0  0  0  0  0  0  0  0  0  0  0
   -0.7145   -1.2375    0.0000 R#  0  0  0  0  0  0  0  0  0  0  0  0
 18  1  1  0
  2  1  1  0
  2  3  1  1
  3  4  1  0
  4  5  2  0
  5  6  1  0
  6  7  2  0
  7  8  1  0
  8  9  2  0
  4  9  1  0
  7 10  1  0
 10 11  2  0
 11 12  1  0
 12 13  2  0
 13 14  1  0
 14 15  2  0
 10 15  1  0
  2 16  1  0
 16 19  1  0
 16 17  2  0
M  RGP  2  18   1  19   2
V   18 *
V   19 *
M  END
>  <m_name>  (314) 
(2S)-2-amino-3-{[1,1'-biphenyl]-4-yl}propanoic acid

>  <symbol>  (314) 
Bip

>  <m_abbr>  (314) 
Bip

>  <m_type>  (314) 
aa

>  <m_subtype>  (314) 
non-natural

>  <m_Rgroups>  (314) 
H,OH,None,None

>  <m_RgroupIdx>  (314) 
17,18,None,None

>  <m_attachmentPointIdx>  (314) 
0,15,None,None

>  <natAnalog>  (314) 
X

>  <pdbName>  (314) 
BI0

$$$$

     RDKit          2D

  8  7  0  0  0  0  0  0  0  0999 V2000
    2.0625    0.7145    0.0000 C   0  0  0  0  0  0  0  0  0  0  0  0
    1.2375    0.7145    0.0000 C   0  0  0  0  0  0  0  0  0  0  0  0
    0.8250    0.0000    0.0000 C   0  0  0  0  0  0  0  0  0  0  0  0
    0.0000    0.0000    0.0000 N   0  0  0  0  0  0  0  0  0  0  0  0
    1.2375   -0.7145    0.0000 C   0  0  0  0  0  0  0  0  0  0  0  0
    2.0625   -0.7145    0.0000 O   0  0  0  0  0  0  0  0  0  0  0  0
   -0.4125   -0.7145    0.0000 R#  0  0  0  0  0  0  0  0  0  0  0  0
    0.8250   -1.4289    0.0000 R#  0  0  0  0  0  0  0  0  0  0  0  0
  1  2  1  0
  2  3  1  0
  3  4  2  3
  4  7  1  0
  3  5  1  0
  5  8  1  0
  5  6  2  0
M  RGP  2   7   1   8   2
V    7 *
V    8 *
M  END
>  <m_name>  (315) 
2-aminobut-2-enoic acid

>  <symbol>  (315) 
Abu_23dehydro

>  <m_abbr>  (315) 
Abu_23dehydro

>  <m_type>  (315) 
aa

>  <m_subtype>  (315) 
non-natural

>  <m_Rgroups>  (315) 
H,OH,None,None

>  <m_RgroupIdx>  (315) 
6,7,None,None

>  <m_attachmentPointIdx>  (315) 
3,4,None,None

>  <natAnalog>  (315) 
X

>  <pdbName>  (315) 
AJS

$$$$

     RDKit          2D

 19 20  0  0  0  0  0  0  0  0999 V2000
    0.7145   -0.4125    0.0000 N   0  0  0  0  0  0  0  0  0  0  0  0
    1.4289    0.0000    0.0000 C   0  0  0  0  0  0  0  0  0  0  0  0
    2.1434   -0.4125    0.0000 C   0  0  0  0  0  0  0  0  0  0  0  0
    2.1434   -1.2375    0.0000 C   0  0  0  0  0  0  0  0  0  0  0  0
    2.8579   -1.6500    0.0000 C   0  0  0  0  0  0  0  0  0  0  0  0
    2.8579   -2.4750    0.0000 C   0  0  0  0  0  0  0  0  0  0  0  0
    2.1434   -2.8875    0.0000 C   0  0  0  0  0  0  0  0  0  0  0  0
    1.4289   -2.4750    0.0000 C   0  0  0  0  0  0  0  0  0  0  0  0
    1.4289   -1.6500    0.0000 C   0  0  0  0  0  0  0  0  0  0  0  0
    2.8579    0.0000    0.0000 C   0  0  0  0  0  0  0  0  0  0  0  0
    2.8579    0.8250    0.0000 C   0  0  0  0  0  0  0  0  0  0  0  0
    3.5724    1.2375    0.0000 C   0  0  0  0  0  0  0  0  0  0  0  0
    4.2868    0.8250    0.0000 C   0  0  0  0  0  0  0  0  0  0  0  0
    4.2868    0.0000    0.0000 C   0  0  0  0  0  0  0  0  0  0  0  0
    3.5724   -0.4125    0.0000 C   0  0  0  0  0  0  0  0  0  0  0  0
    1.4289    0.8250    0.0000 C   0  0  0  0  0  0  0  0  0  0  0  0
    2.1434    1.2375    0.0000 O   0  0  0  0  0  0  0  0  0  0  0  0
    0.0000    0.0000    0.0000 R#  0  0  0  0  0  0  0  0  0  0  0  0
    0.7145    1.2375    0.0000 R#  0  0  0  0  0  0  0  0  0  0  0  0
 18  1  1  0
  2  1  1  1
  2  3  1  0
  3  4  1  0
  4  5  2  0
  5  6  1  0
  6  7  2  0
  7  8  1  0
  8  9  2  0
  4  9  1  0
  3 10  1  0
 10 11  2  0
 11 12  1  0
 12 13  2  0
 13 14  1  0
 14 15  2  0
 10 15  1  0
  2 16  1  0
 16 19  1  0
 16 17  2  0
M  RGP  2  18   1  19   2
V   18 *
V   19 *
M  END
>  <m_name>  (316) 
(2R)-2-amino-3,3-diphenylpropanoic acid

>  <symbol>  (316) 
D_Dip

>  <m_abbr>  (316) 
D_Dip

>  <m_type>  (316) 
aa

>  <m_subtype>  (316) 
non-natural

>  <m_Rgroups>  (316) 
H,OH,None,None

>  <m_RgroupIdx>  (316) 
17,18,None,None

>  <m_attachmentPointIdx>  (316) 
0,15,None,None

>  <natAnalog>  (316) 
X

>  <pdbName>  (316) 
D9I

$$$$

     RDKit          2D

  7  6  0  0  0  0  0  0  0  0999 V2000
    1.2375   -0.7145    0.0000 C   0  0  0  0  0  0  0  0  0  0  0  0
    0.8250    0.0000    0.0000 C   0  0  0  0  0  0  0  0  0  0  0  0
    0.0000    0.0000    0.0000 N   0  0  0  0  0  0  0  0  0  0  0  0
    1.2375    0.7145    0.0000 C   0  0  0  0  0  0  0  0  0  0  0  0
    2.0625    0.7145    0.0000 O   0  0  0  0  0  0  0  0  0  0  0  0
   -0.4125   -0.7145    0.0000 R#  0  0  0  0  0  0  0  0  0  0  0  0
    0.8250    1.4289    0.0000 R#  0  0  0  0  0  0  0  0  0  0  0  0
  1  2  1  0
  2  3  2  3
  3  6  1  0
  2  4  1  0
  4  7  1  0
  4  5  2  0
M  RGP  2   6   1   7   2
V    6 *
V    7 *
M  END
>  <m_name>  (317) 
2-aminoprop-2-enoic acid

>  <symbol>  (317) 
Dha

>  <m_abbr>  (317) 
Dha

>  <m_type>  (317) 
aa

>  <m_subtype>  (317) 
non-natural

>  <m_Rgroups>  (317) 
H,OH,None,None

>  <m_RgroupIdx>  (317) 
5,6,None,None

>  <m_attachmentPointIdx>  (317) 
2,3,None,None

>  <natAnalog>  (317) 
A

>  <pdbName>  (317) 
D9J

$$$$

     RDKit          2D

 18 17  0  0  0  0  0  0  0  0999 V2000
   -1.4629   -2.6369    0.0000 C   0  0  0  0  0  0  0  0  0  0  0  0
   -0.6528   -2.4810    0.0000 C   0  0  0  0  0  0  0  0  0  0  0  0
   -0.1127   -3.1046    0.0000 N   0  0  0  0  0  0  0  0  0  0  0  0
    0.6974   -2.9487    0.0000 C   0  0  0  0  0  0  0  0  0  0  0  0
    1.2375   -3.5724    0.0000 N   0  0  0  0  0  0  0  0  0  0  0  0
    2.0476   -3.4164    0.0000 C   0  0  0  0  0  0  0  0  0  0  0  0
    2.5877   -4.0401    0.0000 C   0  0  0  0  0  0  0  0  0  0  0  0
    3.3979   -3.8842    0.0000 C   0  0  0  0  0  0  0  0  0  0  0  0
    3.9379   -4.5078    0.0000 C   0  0  0  0  0  0  0  0  0  0  0  0
    4.7481   -4.3519    0.0000 C   0  0  0  0  0  0  0  0  0  0  0  0
    5.2882   -4.9755    0.0000 N   0  0  0  0  0  0  0  0  0  0  0  0
    5.0181   -3.5724    0.0000 C   0  0  0  0  0  0  0  0  0  0  0  0
    5.8283   -3.4164    0.0000 O   0  0  0  0  0  0  0  0  0  0  0  0
    0.9675   -2.1692    0.0000 N   0  0  0  0  0  0  0  0  0  0  0  0
    1.7776   -2.0133    0.0000 C   0  0  0  0  0  0  0  0  0  0  0  0
    2.0476   -1.2337    0.0000 C   0  0  0  0  0  0  0  0  0  0  0  0
    6.0983   -4.8196    0.0000 R#  0  0  0  0  0  0  0  0  0  0  0  0
    4.4780   -2.9487    0.0000 R#  0  0  0  0  0  0  0  0  0  0  0  0
  1  2  1  0
  3  2  1  0
  3  4  1  0
  4  5  1  0
  5  6  1  0
  6  7  1  0
  7  8  1  0
  8  9  1  0
 10  9  1  6
 10 11  1  0
 11 17  1  0
 10 12  1  0
 12 18  1  0
 12 13  2  0
  4 14  2  3
 14 15  1  0
 15 16  1  0
M  RGP  2  17   1  18   2
V   17 *
V   18 *
M  END
>  <m_name>  (318) 
(2R)-2-amino-6-{[bis(ethylamino)methylidene]amino}hexanoic acid

>  <symbol>  (318) 
D_hArg_Et2

>  <m_abbr>  (318) 
D_hArg_Et2

>  <m_type>  (318) 
aa

>  <m_subtype>  (318) 
non-natural

>  <m_Rgroups>  (318) 
H,OH,None,None

>  <m_RgroupIdx>  (318) 
16,17,None,None

>  <m_attachmentPointIdx>  (318) 
10,11,None,None

>  <natAnalog>  (318) 
R

>  <pdbName>  (318) 
D9R

$$$$

     RDKit          2D

 11 10  0  0  0  0  0  0  0  0999 V2000
    0.8250   -1.4289    0.0000 C   0  0  0  0  0  0  0  0  0  0  0  0
    1.2375   -2.1434    0.0000 S   0  0  0  0  0  0  0  0  0  0  0  0
    0.8250   -2.8579    0.0000 O   0  0  0  0  0  0  0  0  0  0  0  0
    2.0625   -2.1434    0.0000 C   0  0  0  0  0  0  0  0  0  0  0  0
    2.4750   -2.8579    0.0000 C   0  0  0  0  0  0  0  0  0  0  0  0
    3.3000   -2.8579    0.0000 C   0  0  0  0  0  0  0  0  0  0  0  0
    3.7125   -3.5724    0.0000 N   0  0  0  0  0  0  0  0  0  0  0  0
    3.7125   -2.1434    0.0000 C   0  0  0  0  0  0  0  0  0  0  0  0
    4.5375   -2.1434    0.0000 O   0  0  0  0  0  0  0  0  0  0  0  0
    4.5375   -3.5724    0.0000 R#  0  0  0  0  0  0  0  0  0  0  0  0
    3.3000   -1.4289    0.0000 R#  0  0  0  0  0  0  0  0  0  0  0  0
  2  1  1  1
  3  2  1  0
  2  4  1  0
  4  5  1  0
  6  5  1  6
  6  7  1  0
  6  8  1  0
  7 10  1  0
  8 11  1  0
  8  9  2  0
M  CHG  2   2   1   3  -1
M  RGP  2  10   1  11   2
V   10 *
V   11 *
M  END
>  <m_name>  (319) 
(2R)-2-amino-4-[(S)-methanesulfinyl]butanoic acid

>  <symbol>  (319) 
D_Met_S_O

>  <m_abbr>  (319) 
D_Met_S_O

>  <m_type>  (319) 
aa

>  <m_subtype>  (319) 
non-natural

>  <m_Rgroups>  (319) 
H,OH,None,None

>  <m_RgroupIdx>  (319) 
9,10,None,None

>  <m_attachmentPointIdx>  (319) 
6,7,None,None

>  <natAnalog>  (319) 
M

>  <pdbName>  (319) 
D9X

$$$$

     RDKit          2D

 19 20  0  0  0  0  0  0  0  0999 V2000
    1.3222    0.7634    0.0000 N   0  0  0  0  0  0  0  0  0  0  0  0
    1.3222   -0.0616    0.0000 C   0  0  0  0  0  0  0  0  0  0  0  0
    2.0367   -0.4741    0.0000 C   0  0  0  0  0  0  0  0  0  0  0  0
    2.0367   -1.2991    0.0000 C   0  0  0  0  0  0  0  0  0  0  0  0
    2.7041   -1.7840    0.0000 C   0  0  0  0  0  0  0  0  0  0  0  0
    2.4492   -2.5687    0.0000 N   0  0  0  0  0  0  0  0  0  0  0  0
    2.9341   -3.2361    0.0000 C   0  0  0  0  0  0  0  0  0  0  0  0
    2.5986   -3.9898    0.0000 C   0  0  0  0  0  0  0  0  0  0  0  0
    3.0835   -4.6572    0.0000 C   0  0  0  0  0  0  0  0  0  0  0  0
    2.7479   -5.4109    0.0000 C   0  0  0  0  0  0  0  0  0  0  0  0
    1.9275   -5.4971    0.0000 C   0  0  0  0  0  0  0  0  0  0  0  0
    1.4425   -4.8297    0.0000 C   0  0  0  0  0  0  0  0  0  0  0  0
    1.7781   -4.0760    0.0000 C   0  0  0  0  0  0  0  0  0  0  0  0
    1.6242   -2.5687    0.0000 C   0  0  0  0  0  0  0  0  0  0  0  0
    1.3693   -1.7840    0.0000 N   0  0  0  0  0  0  0  0  0  0  0  0
    0.6078   -0.4741    0.0000 C   0  0  0  0  0  0  0  0  0  0  0  0
   -0.1067   -0.0616    0.0000 O   0  0  0  0  0  0  0  0  0  0  0  0
    0.6078    1.1759    0.0000 R#  0  0  0  0  0  0  0  0  0  0  0  0
    0.6078   -1.2991    0.0000 R#  0  0  0  0  0  0  0  0  0  0  0  0
 18  1  1  0
  2  1  1  0
  2  3  1  6
  3  4  1  0
  4  5  2  0
  5  6  1  0
  6  7  1  0
  7  8  1  0
  8  9  2  0
  9 10  1  0
 10 11  2  0
 11 12  1  0
 12 13  2  0
  8 13  1  0
  6 14  1  0
 14 15  2  0
  4 15  1  0
  2 16  1  0
 16 19  1  0
 16 17  2  0
M  RGP  2  18   1  19   2
V   18 *
V   19 *
M  END
>  <m_name>  (320) 
(2R)-2-amino-3-(1-benzyl-1H-imidazol-4-yl)propanoic acid

>  <symbol>  (320) 
D_His_1Bn

>  <m_abbr>  (320) 
D_His_1Bn

>  <m_type>  (320) 
aa

>  <m_subtype>  (320) 
non-natural

>  <m_Rgroups>  (320) 
H,OH,None,None

>  <m_RgroupIdx>  (320) 
17,18,None,None

>  <m_attachmentPointIdx>  (320) 
0,15,None,None

>  <natAnalog>  (320) 
H

>  <pdbName>  (320) 
AJT

$$$$

     RDKit          2D

 13 13  0  0  0  0  0  0  0  0999 V2000
    0.7145    2.0625    0.0000 O   0  0  0  0  0  0  0  0  0  0  0  0
    0.7145    1.2375    0.0000 C   0  0  0  0  0  0  0  0  0  0  0  0
    1.4289    0.8250    0.0000 C   0  0  0  0  0  0  0  0  0  0  0  0
    1.4289    0.0000    0.0000 C   0  0  0  0  0  0  0  0  0  0  0  0
    0.7145   -0.4125    0.0000 C   0  0  0  0  0  0  0  0  0  0  0  0
    0.0000    0.0000    0.0000 C   0  0  0  0  0  0  0  0  0  0  0  0
    0.0000    0.8250    0.0000 C   0  0  0  0  0  0  0  0  0  0  0  0
    0.7145   -1.2375    0.0000 C   0  0  0  0  0  0  0  0  0  0  0  0
    0.0000   -1.6500    0.0000 N   0  0  0  0  0  0  0  0  0  0  0  0
    1.4289   -1.6500    0.0000 C   0  0  0  0  0  0  0  0  0  0  0  0
    2.1434   -1.2375    0.0000 O   0  0  0  0  0  0  0  0  0  0  0  0
    0.0000   -2.4750    0.0000 R#  0  0  0  0  0  0  0  0  0  0  0  0
    1.4289   -2.4750    0.0000 R#  0  0  0  0  0  0  0  0  0  0  0  0
  1  2  1  0
  2  3  2  0
  3  4  1  0
  4  5  2  0
  5  6  1  0
  6  7  2  0
  2  7  1  0
  8  5  1  0
  8  9  1  6
  9 12  1  0
  8 10  1  0
 10 13  1  0
 10 11  2  0
M  RGP  2  12   1  13   2
V   12 *
V   13 *
M  END
>  <m_name>  (321) 
(2R)-2-amino-2-(4-hydroxyphenyl)acetic acid

>  <symbol>  (321) 
D_nTyr

>  <m_abbr>  (321) 
D_nTyr

>  <m_type>  (321) 
aa

>  <m_subtype>  (321) 
non-natural

>  <m_Rgroups>  (321) 
H,OH,None,None

>  <m_RgroupIdx>  (321) 
11,12,None,None

>  <m_attachmentPointIdx>  (321) 
8,9,None,None

>  <natAnalog>  (321) 
Y

>  <pdbName>  (321) 
AJW

$$$$

     RDKit          2D

 17 17  0  0  0  0  0  0  0  0999 V2000
    0.0000    3.3000    0.0000 N   0  0  0  0  0  0  0  0  0  0  0  0
    0.0000    2.4750    0.0000 C   0  0  0  0  0  0  0  0  0  0  0  0
   -0.7145    2.0625    0.0000 O   0  0  0  0  0  0  0  0  0  0  0  0
    0.7145    2.0625    0.0000 N   0  0  0  0  0  0  0  0  0  0  0  0
    0.7145    1.2375    0.0000 C   0  0  0  0  0  0  0  0  0  0  0  0
    1.4289    0.8250    0.0000 C   0  0  0  0  0  0  0  0  0  0  0  0
    1.4289    0.0000    0.0000 C   0  0  0  0  0  0  0  0  0  0  0  0
    0.7145   -0.4125    0.0000 C   0  0  0  0  0  0  0  0  0  0  0  0
    0.7145   -1.2375    0.0000 C   0  0  0  0  0  0  0  0  0  0  0  0
    1.4289   -1.6500    0.0000 C   0  0  0  0  0  0  0  0  0  0  0  0
    1.4289   -2.4750    0.0000 N   0  0  0  0  0  0  0  0  0  0  0  0
    2.1434   -1.2375    0.0000 C   0  0  0  0  0  0  0  0  0  0  0  0
    2.1434   -0.4125    0.0000 O   0  0  0  0  0  0  0  0  0  0  0  0
    0.0000    0.0000    0.0000 C   0  0  0  0  0  0  0  0  0  0  0  0
    0.0000    0.8250    0.0000 C   0  0  0  0  0  0  0  0  0  0  0  0
    2.1434   -2.8875    0.0000 R#  0  0  0  0  0  0  0  0  0  0  0  0
    2.8579   -1.6500    0.0000 R#  0  0  0  0  0  0  0  0  0  0  0  0
  1  2  1  0
  2  3  2  0
  2  4  1  0
  4  5  1  0
  5  6  2  0
  6  7  1  0
  7  8  2  0
  8  9  1  0
 10  9  1  6
 10 11  1  0
 11 16  1  0
 10 12  1  0
 12 17  1  0
 12 13  2  0
  8 14  1  0
 14 15  2  0
  5 15  1  0
M  RGP  2  16   1  17   2
V   16 *
V   17 *
M  END
>  <m_name>  (322) 
(2R)-2-amino-3-[4-(carbamoylamino)phenyl]propanoic acid

>  <symbol>  (322) 
D_Phe_4ureido

>  <m_abbr>  (322) 
D_Phe_4ureido

>  <m_type>  (322) 
aa

>  <m_subtype>  (322) 
non-natural

>  <m_Rgroups>  (322) 
H,OH,None,None

>  <m_RgroupIdx>  (322) 
15,16,None,None

>  <m_attachmentPointIdx>  (322) 
10,11,None,None

>  <natAnalog>  (322) 
F

>  <pdbName>  (322) 
AJ0

$$$$
